
     RDKit          3D

 52 57  0  0  0  0  0  0  0  0999 V2000
    0.9362   -2.1275   -2.0587 O   0  0  0  0  0  0  0  0  0  0  0  0
    0.7917   -1.4087   -1.0875 C   0  0  0  0  0  0  0  0  0  0  0  0
    1.7135   -0.6608   -0.3286 N   0  0  0  0  0  0  0  0  0  0  0  0
    3.1305   -0.8128   -0.3814 C   0  0  0  0  0  0  0  0  0  0  0  0
    3.7268   -1.8477   -1.1181 C   0  0  0  0  0  0  0  0  0  0  0  0
    5.1165   -1.9981   -1.1769 C   0  0  0  0  0  0  0  0  0  0  0  0
    5.9453   -1.1174   -0.4921 C   0  0  0  0  0  0  0  0  0  0  0  0
    5.3906   -0.0756    0.2582 C   0  0  0  0  0  0  0  0  0  0  0  0
    3.9888    0.0706    0.2969 C   0  0  0  0  0  0  0  0  0  0  0  0
    6.2790    0.9089    0.9801 C   0  0  0  0  0  0  0  0  0  0  0  0
    6.5115    2.0289    0.2416 F   0  0  0  0  0  0  0  0  0  0  0  0
    7.5065    0.4011    1.2844 F   0  0  0  0  0  0  0  0  0  0  0  0
    5.7513    1.3370    2.1584 F   0  0  0  0  0  0  0  0  0  0  0  0
    1.0278    0.2463    0.5033 C   0  0  0  0  0  0  0  0  0  0  0  0
    1.3993    0.8875    1.4676 O   0  0  0  0  0  0  0  0  0  0  0  0
   -0.3390    0.3166   -0.0975 C   0  0  1  0  0  0  0  0  0  0  0  0
   -0.4994   -1.1769   -0.3790 C   0  0  1  0  0  0  0  0  0  0  0  0
   -1.9301   -1.4589   -0.8309 C   0  0  0  0  0  0  0  0  0  0  0  0
   -2.6245   -1.4127    0.5497 C   0  0  0  0  0  0  0  0  0  0  0  0
   -3.3218   -2.4782    1.1082 C   0  0  0  0  0  0  0  0  0  0  0  0
   -3.8077   -2.3439    2.4061 C   0  0  0  0  0  0  0  0  0  0  0  0
   -3.5872   -1.1657    3.1314 C   0  0  0  0  0  0  0  0  0  0  0  0
   -2.8900   -0.0880    2.5721 C   0  0  0  0  0  0  0  0  0  0  0  0
   -2.4098   -0.1857    1.2715 C   0  0  0  0  0  0  0  0  0  0  0  0
   -1.6655    0.9085    0.4434 C   0  0  0  0  0  0  0  0  0  0  0  0
   -2.4762    0.9708   -0.9094 C   0  0  0  0  0  0  0  0  0  0  0  0
   -2.5177   -0.2820   -1.6041 C   0  0  0  0  0  0  0  0  0  0  0  0
   -3.1360   -0.3869   -2.8427 C   0  0  0  0  0  0  0  0  0  0  0  0
   -3.7286    0.7494   -3.3934 C   0  0  0  0  0  0  0  0  0  0  0  0
   -3.7188    1.9705   -2.7043 C   0  0  0  0  0  0  0  0  0  0  0  0
   -3.0991    2.0882   -1.4578 C   0  0  0  0  0  0  0  0  0  0  0  0
   -1.5085    2.3043    1.0800 C   0  0  0  0  0  0  0  0  0  0  0  0
   -2.2227    2.7160    1.9981 O   0  0  0  0  0  0  0  0  0  0  0  0
   -0.4889    3.2585    0.4953 C   0  0  0  0  0  0  0  0  0  0  0  0
    3.1348   -2.5803   -1.6616 H   0  0  0  0  0  0  0  0  0  0  0  0
    5.5471   -2.8103   -1.7593 H   0  0  0  0  0  0  0  0  0  0  0  0
    7.0257   -1.2437   -0.5476 H   0  0  0  0  0  0  0  0  0  0  0  0
    3.5963    0.9094    0.8686 H   0  0  0  0  0  0  0  0  0  0  0  0
   -0.1179    0.8650   -1.0357 H   0  0  0  0  0  0  0  0  0  0  0  0
   -0.3322   -1.7830    0.5353 H   0  0  0  0  0  0  0  0  0  0  0  0
   -2.0534   -2.4206   -1.3360 H   0  0  0  0  0  0  0  0  0  0  0  0
   -3.4775   -3.4008    0.5579 H   0  0  0  0  0  0  0  0  0  0  0  0
   -4.3580   -3.1613    2.8654 H   0  0  0  0  0  0  0  0  0  0  0  0
   -3.9724   -1.0811    4.1455 H   0  0  0  0  0  0  0  0  0  0  0  0
   -2.7547    0.8051    3.1739 H   0  0  0  0  0  0  0  0  0  0  0  0
   -3.1817   -1.3356   -3.3704 H   0  0  0  0  0  0  0  0  0  0  0  0
   -4.2243    0.6834   -4.3596 H   0  0  0  0  0  0  0  0  0  0  0  0
   -4.2091    2.8363   -3.1452 H   0  0  0  0  0  0  0  0  0  0  0  0
   -3.1251    3.0454   -0.9448 H   0  0  0  0  0  0  0  0  0  0  0  0
   -0.8419    4.2851    0.6390 H   0  0  0  0  0  0  0  0  0  0  0  0
    0.4691    3.1466    1.0031 H   0  0  0  0  0  0  0  0  0  0  0  0
   -0.3689    3.1050   -0.5788 H   0  0  0  0  0  0  0  0  0  0  0  0
  1  2  2  0
  2  3  1  0
  3  4  1  0
  4  5  2  0
  5  6  1  0
  6  7  2  0
  7  8  1  0
  8  9  2  0
  8 10  1  0
 10 11  1  0
 10 12  1  0
 10 13  1  0
  3 14  1  0
 14 15  2  0
 14 16  1  0
 16 17  1  0
 17 18  1  0
 18 19  1  0
 19 20  2  0
 20 21  1  0
 21 22  2  0
 22 23  1  0
 23 24  2  0
 24 25  1  0
 25 26  1  0
 26 27  2  0
 27 28  1  0
 28 29  2  0
 29 30  1  0
 30 31  2  0
 25 32  1  0
 32 33  2  0
 32 34  1  0
 17  2  1  0
 27 18  1  0
  9  4  1  0
 25 16  1  0
 31 26  1  0
 24 19  1  0
  5 35  1  0
  6 36  1  0
  7 37  1  0
  9 38  1  0
 16 39  1  6
 17 40  1  1
 18 41  1  0
 20 42  1  0
 21 43  1  0
 22 44  1  0
 23 45  1  0
 28 46  1  0
 29 47  1  0
 30 48  1  0
 31 49  1  0
 34 50  1  0
 34 51  1  0
 34 52  1  0
M  END
