
     RDKit          3D

 65 69  0  0  0  0  0  0  0  0999 V2000
   -9.8293    0.8426    0.8897 C   0  0  0  0  0  0  0  0  0  0  0  0
   -8.9227    1.9682    0.4251 C   0  0  0  0  0  0  0  0  0  0  0  0
   -7.5462    1.5764    0.5342 O   0  0  0  0  0  0  0  0  0  0  0  0
   -7.0231    0.9233   -0.5399 C   0  0  0  0  0  0  0  0  0  0  0  0
   -7.6568    0.6492   -1.5507 O   0  0  0  0  0  0  0  0  0  0  0  0
   -5.6971    0.5957   -0.3479 N   0  0  0  0  0  0  0  0  0  0  0  0
   -4.9341    1.0143    0.8316 C   0  0  0  0  0  0  0  0  0  0  0  0
   -3.4177    1.0083    0.5770 C   0  0  0  0  0  0  0  0  0  0  0  0
   -2.9553   -0.3344    0.1481 N   0  0  0  0  0  0  0  0  0  0  0  0
   -3.8648   -1.0467   -0.7904 C   0  0  0  0  0  0  0  0  0  0  0  0
   -4.9690   -0.1475   -1.3765 C   0  0  0  0  0  0  0  0  0  0  0  0
   -1.6093   -0.3331   -0.2738 C   0  0  0  0  0  0  0  0  0  0  0  0
   -0.6857   -1.0744    0.4832 C   0  0  0  0  0  0  0  0  0  0  0  0
    0.6798   -1.1208    0.1475 C   0  0  0  0  0  0  0  0  0  0  0  0
    1.1099   -0.3788   -0.9734 C   0  0  0  0  0  0  0  0  0  0  0  0
    0.2052    0.3521   -1.7501 C   0  0  0  0  0  0  0  0  0  0  0  0
   -1.1389    0.3614   -1.4006 C   0  0  0  0  0  0  0  0  0  0  0  0
   -1.9926    1.0618   -2.1626 F   0  0  0  0  0  0  0  0  0  0  0  0
    2.5539   -0.3437   -1.3244 C   0  0  0  0  0  0  0  0  0  0  0  0
    2.9498    0.3382   -2.2641 O   0  0  0  0  0  0  0  0  0  0  0  0
    3.4800   -1.1057   -0.4597 C   0  0  0  0  0  0  0  0  0  0  0  0
    2.9684   -1.7998    0.5666 C   0  0  0  0  0  0  0  0  0  0  0  0
    1.6280   -1.8810    0.8928 N   0  0  0  0  0  0  0  0  0  0  0  0
    1.2327   -2.6641    2.0800 C   0  0  0  0  0  0  0  0  0  0  0  0
    1.7875   -4.0379    2.3755 C   0  0  0  0  0  0  0  0  0  0  0  0
    0.3596   -3.8895    1.9546 C   0  0  0  0  0  0  0  0  0  0  0  0
    4.9329   -1.1634   -0.7056 C   0  0  0  0  0  0  0  0  0  0  0  0
    5.4020   -1.7502   -1.6714 O   0  0  0  0  0  0  0  0  0  0  0  0
    5.6823   -0.5319    0.2609 N   0  0  0  0  0  0  0  0  0  0  0  0
    7.1064   -0.3422    0.1031 C   0  0  0  0  0  0  0  0  0  0  0  0
    7.4004    1.0405   -0.4255 C   0  0  0  0  0  0  0  0  0  0  0  0
    7.4434    1.2314   -1.8198 C   0  0  0  0  0  0  0  0  0  0  0  0
    7.6795    2.4961   -2.3627 C   0  0  0  0  0  0  0  0  0  0  0  0
    7.8688    3.5851   -1.5163 C   0  0  0  0  0  0  0  0  0  0  0  0
    7.8168    3.4243   -0.1336 C   0  0  0  0  0  0  0  0  0  0  0  0
    7.5755    2.1579    0.4087 C   0  0  0  0  0  0  0  0  0  0  0  0
    7.4752    2.0313    2.1319 Cl  0  0  0  0  0  0  0  0  0  0  0  0
    8.1554    5.1449   -2.1817 Cl  0  0  0  0  0  0  0  0  0  0  0  0
   -9.7165   -0.0405    0.2531 H   0  0  0  0  0  0  0  0  0  0  0  0
   -9.5666    0.5360    1.9069 H   0  0  0  0  0  0  0  0  0  0  0  0
  -10.8778    1.1522    0.8750 H   0  0  0  0  0  0  0  0  0  0  0  0
   -9.1723    2.2915   -0.5925 H   0  0  0  0  0  0  0  0  0  0  0  0
   -9.0584    2.8387    1.0755 H   0  0  0  0  0  0  0  0  0  0  0  0
   -5.2514    2.0144    1.1411 H   0  0  0  0  0  0  0  0  0  0  0  0
   -5.1870    0.3163    1.6371 H   0  0  0  0  0  0  0  0  0  0  0  0
   -2.8964    1.2879    1.5004 H   0  0  0  0  0  0  0  0  0  0  0  0
   -3.1886    1.7700   -0.1790 H   0  0  0  0  0  0  0  0  0  0  0  0
   -3.3180   -1.5377   -1.6063 H   0  0  0  0  0  0  0  0  0  0  0  0
   -4.3426   -1.8488   -0.2116 H   0  0  0  0  0  0  0  0  0  0  0  0
   -5.6652   -0.7566   -1.9628 H   0  0  0  0  0  0  0  0  0  0  0  0
   -4.5332    0.5938   -2.0591 H   0  0  0  0  0  0  0  0  0  0  0  0
   -1.0644   -1.6122    1.3486 H   0  0  0  0  0  0  0  0  0  0  0  0
    0.5351    0.9164   -2.6185 H   0  0  0  0  0  0  0  0  0  0  0  0
    3.6204   -2.3821    1.2134 H   0  0  0  0  0  0  0  0  0  0  0  0
    1.0559   -2.0220    2.9402 H   0  0  0  0  0  0  0  0  0  0  0  0
    2.4616   -4.5070    1.6675 H   0  0  0  0  0  0  0  0  0  0  0  0
    1.9883   -4.2931    3.4095 H   0  0  0  0  0  0  0  0  0  0  0  0
   -0.4121   -4.0381    2.6987 H   0  0  0  0  0  0  0  0  0  0  0  0
    0.0905   -4.2307    0.9612 H   0  0  0  0  0  0  0  0  0  0  0  0
    5.2196    0.0125    0.9789 H   0  0  0  0  0  0  0  0  0  0  0  0
    7.5782   -0.5122    1.0766 H   0  0  0  0  0  0  0  0  0  0  0  0
    7.5186   -1.1015   -0.5724 H   0  0  0  0  0  0  0  0  0  0  0  0
    7.2751    0.3885   -2.4924 H   0  0  0  0  0  0  0  0  0  0  0  0
    7.7018    2.6217   -3.4438 H   0  0  0  0  0  0  0  0  0  0  0  0
    7.9549    4.2843    0.5174 H   0  0  0  0  0  0  0  0  0  0  0  0
  1  2  1  0
  2  3  1  0
  3  4  1  0
  4  5  2  0
  4  6  1  0
  6  7  1  0
  7  8  1  0
  8  9  1  0
  9 10  1  0
 10 11  1  0
  9 12  1  0
 12 13  2  0
 13 14  1  0
 14 15  2  0
 15 16  1  0
 16 17  2  0
 17 18  1  0
 15 19  1  0
 19 20  2  0
 19 21  1  0
 21 22  2  0
 22 23  1  0
 23 24  1  0
 24 25  1  0
 25 26  1  0
 21 27  1  0
 27 28  2  0
 27 29  1  0
 29 30  1  0
 30 31  1  0
 31 32  2  0
 32 33  1  0
 33 34  2  0
 34 35  1  0
 35 36  2  0
 36 37  1  0
 34 38  1  0
 11  6  1  0
 17 12  1  0
 26 24  1  0
 36 31  1  0
 23 14  1  0
  1 39  1  0
  1 40  1  0
  1 41  1  0
  2 42  1  0
  2 43  1  0
  7 44  1  0
  7 45  1  0
  8 46  1  0
  8 47  1  0
 10 48  1  0
 10 49  1  0
 11 50  1  0
 11 51  1  0
 13 52  1  0
 16 53  1  0
 22 54  1  0
 24 55  1  0
 25 56  1  0
 25 57  1  0
 26 58  1  0
 26 59  1  0
 29 60  1  0
 30 61  1  0
 30 62  1  0
 32 63  1  0
 33 64  1  0
 35 65  1  0
M  END
