
     RDKit          3D

 52 55  0  0  0  0  0  0  0  0999 V2000
    1.4940    0.4312   -1.0969 O   0  0  0  0  0  0  0  0  0  0  0  0
    1.6643    0.3068    0.1085 C   0  0  0  0  0  0  0  0  0  0  0  0
    0.7011    0.6670    1.0290 N   0  0  0  0  0  0  0  0  0  0  0  0
   -0.6181    1.0650    0.5431 C   0  0  1  0  0  0  0  0  0  0  0  0
   -1.4827   -0.2190    0.3809 C   0  0  0  0  0  0  0  0  0  0  0  0
   -1.2405   -1.2024    1.0927 O   0  0  0  0  0  0  0  0  0  0  0  0
   -2.5292   -0.1539   -0.5268 N   0  0  0  0  0  0  0  0  0  0  0  0
   -2.8379    0.9838   -1.4114 C   0  0  0  0  0  0  0  0  0  0  0  0
   -4.1205    0.6445   -2.1794 C   0  0  0  0  0  0  0  0  0  0  0  0
   -4.3554   -0.7749   -1.7791 C   0  0  0  0  0  0  0  0  0  0  0  0
   -3.4343   -1.1931   -0.8168 C   0  0  0  0  0  0  0  0  0  0  0  0
   -3.4967   -2.4737   -0.2935 C   0  0  0  0  0  0  0  0  0  0  0  0
   -4.4990   -3.3359   -0.7508 C   0  0  0  0  0  0  0  0  0  0  0  0
   -5.4224   -2.9118   -1.7167 C   0  0  0  0  0  0  0  0  0  0  0  0
   -5.3560   -1.6195   -2.2377 C   0  0  0  0  0  0  0  0  0  0  0  0
   -1.2220    2.0669    1.5164 C   0  0  0  0  0  0  0  0  0  0  0  0
   -1.0186    3.4403    1.2968 C   0  0  0  0  0  0  0  0  0  0  0  0
   -1.5438    4.3897    2.1749 C   0  0  0  0  0  0  0  0  0  0  0  0
   -2.2697    3.9805    3.2907 C   0  0  0  0  0  0  0  0  0  0  0  0
   -2.4635    2.6227    3.5338 C   0  0  0  0  0  0  0  0  0  0  0  0
   -1.9378    1.6706    2.6576 C   0  0  0  0  0  0  0  0  0  0  0  0
    2.7923   -0.1552    0.7471 N   0  0  0  0  0  0  0  0  0  0  0  0
    3.9667   -0.6681    0.1634 C   0  0  0  0  0  0  0  0  0  0  0  0
    5.0335   -0.9628    1.0205 C   0  0  0  0  0  0  0  0  0  0  0  0
    6.2320   -1.4806    0.5189 C   0  0  0  0  0  0  0  0  0  0  0  0
    6.3860   -1.7067   -0.8516 C   0  0  0  0  0  0  0  0  0  0  0  0
    5.3130   -1.4315   -1.7050 C   0  0  0  0  0  0  0  0  0  0  0  0
    4.1142   -0.9126   -1.2018 C   0  0  0  0  0  0  0  0  0  0  0  0
    7.6560   -2.2938   -1.3908 C   0  0  0  0  0  0  0  0  0  0  0  0
    0.6487    0.0432    1.8233 H   0  0  0  0  0  0  0  0  0  0  0  0
   -0.5004    1.5378   -0.4372 H   0  0  0  0  0  0  0  0  0  0  0  0
   -2.9561    1.8980   -0.8215 H   0  0  0  0  0  0  0  0  0  0  0  0
   -1.9961    1.1237   -2.0996 H   0  0  0  0  0  0  0  0  0  0  0  0
   -3.9777    0.7488   -3.2590 H   0  0  0  0  0  0  0  0  0  0  0  0
   -4.9509    1.2794   -1.8541 H   0  0  0  0  0  0  0  0  0  0  0  0
   -2.7919   -2.8257    0.4512 H   0  0  0  0  0  0  0  0  0  0  0  0
   -4.5599   -4.3459   -0.3525 H   0  0  0  0  0  0  0  0  0  0  0  0
   -6.1950   -3.5958   -2.0595 H   0  0  0  0  0  0  0  0  0  0  0  0
   -6.0733   -1.2878   -2.9816 H   0  0  0  0  0  0  0  0  0  0  0  0
   -0.4394    3.7785    0.4391 H   0  0  0  0  0  0  0  0  0  0  0  0
   -1.3801    5.4486    1.9916 H   0  0  0  0  0  0  0  0  0  0  0  0
   -2.6771    4.7192    3.9760 H   0  0  0  0  0  0  0  0  0  0  0  0
   -3.0214    2.3022    4.4102 H   0  0  0  0  0  0  0  0  0  0  0  0
   -2.0956    0.6169    2.8821 H   0  0  0  0  0  0  0  0  0  0  0  0
    2.8103   -0.0053    1.7446 H   0  0  0  0  0  0  0  0  0  0  0  0
    4.9491   -0.7954    2.0908 H   0  0  0  0  0  0  0  0  0  0  0  0
    7.0435   -1.7057    1.2071 H   0  0  0  0  0  0  0  0  0  0  0  0
    5.3972   -1.6187   -2.7734 H   0  0  0  0  0  0  0  0  0  0  0  0
    3.3103   -0.7180   -1.9045 H   0  0  0  0  0  0  0  0  0  0  0  0
    7.5916   -3.3864   -1.3940 H   0  0  0  0  0  0  0  0  0  0  0  0
    8.5152   -1.9915   -0.7825 H   0  0  0  0  0  0  0  0  0  0  0  0
    7.8438   -1.9466   -2.4124 H   0  0  0  0  0  0  0  0  0  0  0  0
  1  2  2  0
  2  3  1  0
  3  4  1  0
  4  5  1  0
  5  6  2  0
  5  7  1  0
  7  8  1  0
  8  9  1  0
  9 10  1  0
 10 11  2  0
 11 12  1  0
 12 13  2  0
 13 14  1  0
 14 15  2  0
  4 16  1  0
 16 17  2  0
 17 18  1  0
 18 19  2  0
 19 20  1  0
 20 21  2  0
  2 22  1  0
 22 23  1  0
 23 24  2  0
 24 25  1  0
 25 26  2  0
 26 27  1  0
 27 28  2  0
 26 29  1  0
 11  7  1  0
 21 16  1  0
 28 23  1  0
 15 10  1  0
  3 30  1  0
  4 31  1  6
  8 32  1  0
  8 33  1  0
  9 34  1  0
  9 35  1  0
 12 36  1  0
 13 37  1  0
 14 38  1  0
 15 39  1  0
 17 40  1  0
 18 41  1  0
 19 42  1  0
 20 43  1  0
 21 44  1  0
 22 45  1  0
 24 46  1  0
 25 47  1  0
 27 48  1  0
 28 49  1  0
 29 50  1  0
 29 51  1  0
 29 52  1  0
M  END
