
     RDKit          3D

 62 63  0  0  0  0  0  0  0  0999 V2000
   -6.0635   -2.9710    3.1557 Cl  0  0  0  0  0  0  0  0  0  0  0  0
   -4.8069   -2.1424    2.3246 C   0  0  0  0  0  0  0  0  0  0  0  0
   -3.5097   -2.6436    2.3530 C   0  0  0  0  0  0  0  0  0  0  0  0
   -2.4873   -1.9661    1.6819 C   0  0  0  0  0  0  0  0  0  0  0  0
   -2.7466   -0.7816    0.9665 C   0  0  0  0  0  0  0  0  0  0  0  0
   -4.0692   -0.2937    0.9608 C   0  0  0  0  0  0  0  0  0  0  0  0
   -5.0919   -0.9704    1.6314 C   0  0  0  0  0  0  0  0  0  0  0  0
   -1.6116   -0.0094    0.2445 C   0  0  0  0  0  0  0  0  0  0  0  0
   -2.0334    0.3623   -1.1901 C   0  0  0  0  0  0  0  0  0  0  0  0
   -2.2248    1.6894   -1.6113 C   0  0  0  0  0  0  0  0  0  0  0  0
   -2.6094    1.9765   -2.9241 C   0  0  0  0  0  0  0  0  0  0  0  0
   -2.8091    0.9453   -3.8385 C   0  0  0  0  0  0  0  0  0  0  0  0
   -2.6264   -0.3765   -3.4439 C   0  0  0  0  0  0  0  0  0  0  0  0
   -2.2434   -0.6649   -2.1334 C   0  0  0  0  0  0  0  0  0  0  0  0
   -0.4690   -0.8969    0.1669 O   0  0  0  0  0  0  0  0  0  0  0  0
    0.7198   -0.3724   -0.4254 C   0  0  0  0  0  0  0  0  0  0  0  0
    1.8419   -0.4101    0.6095 C   0  0  0  0  0  0  0  0  0  0  0  0
    3.1920    0.0153    0.0283 C   0  0  1  0  0  0  0  0  0  0  0  0
    3.1899    1.4442   -0.5119 C   0  0  0  0  0  0  0  0  0  0  0  0
    4.6494    1.8769   -0.4689 C   0  0  0  0  0  0  0  0  0  0  0  0
    5.3535    0.8334    0.3869 C   0  0  0  0  0  0  0  0  0  0  0  0
    4.2653    0.0913    1.0343 N   0  0  0  0  0  0  0  0  0  0  0  0
    4.7165   -1.2144    1.4998 C   0  0  0  0  0  0  0  0  0  0  0  0
   -1.2549    1.1805    1.1654 C   0  0  0  0  0  0  0  0  0  0  0  0
    2.5032   -0.5181    1.3905 O   0  0  0  0  0  0  0  0  0  0  0  0
    1.8542   -0.1710    0.2695 C   0  0  0  0  0  0  0  0  0  0  0  0
    2.4337    0.0833   -0.7678 O   0  0  0  0  0  0  0  0  0  0  0  0
    0.4103   -0.1575    0.5050 C   0  0  0  0  0  0  0  0  0  0  0  0
   -0.4099    0.1672   -0.5022 C   0  0  0  0  0  0  0  0  0  0  0  0
   -1.8544    0.1739   -0.2688 C   0  0  0  0  0  0  0  0  0  0  0  0
   -2.4339   -0.0873    0.7673 O   0  0  0  0  0  0  0  0  0  0  0  0
   -2.5032    0.5165   -1.3911 O   0  0  0  0  0  0  0  0  0  0  0  0
   -3.2813   -3.5565    2.8960 H   0  0  0  0  0  0  0  0  0  0  0  0
   -1.4790   -2.3737    1.7250 H   0  0  0  0  0  0  0  0  0  0  0  0
   -4.3165    0.6211    0.4267 H   0  0  0  0  0  0  0  0  0  0  0  0
   -6.1041   -0.5761    1.6093 H   0  0  0  0  0  0  0  0  0  0  0  0
   -2.0816    2.5233   -0.9285 H   0  0  0  0  0  0  0  0  0  0  0  0
   -2.7535    3.0082   -3.2338 H   0  0  0  0  0  0  0  0  0  0  0  0
   -3.1079    1.1701   -4.8582 H   0  0  0  0  0  0  0  0  0  0  0  0
   -2.7822   -1.1848   -4.1537 H   0  0  0  0  0  0  0  0  0  0  0  0
   -2.1059   -1.7044   -1.8385 H   0  0  0  0  0  0  0  0  0  0  0  0
    0.9755   -1.0268   -1.2662 H   0  0  0  0  0  0  0  0  0  0  0  0
    0.5818    0.6361   -0.8261 H   0  0  0  0  0  0  0  0  0  0  0  0
    1.5722    0.2189    1.4655 H   0  0  0  0  0  0  0  0  0  0  0  0
    1.9071   -1.4293    1.0058 H   0  0  0  0  0  0  0  0  0  0  0  0
    3.4756   -0.6717   -0.7817 H   0  0  0  0  0  0  0  0  0  0  0  0
    2.5923    2.1094    0.1237 H   0  0  0  0  0  0  0  0  0  0  0  0
    2.7882    1.5016   -1.5290 H   0  0  0  0  0  0  0  0  0  0  0  0
    5.0790    1.8998   -1.4761 H   0  0  0  0  0  0  0  0  0  0  0  0
    4.7380    2.8821   -0.0431 H   0  0  0  0  0  0  0  0  0  0  0  0
    5.9586    0.1843   -0.2604 H   0  0  0  0  0  0  0  0  0  0  0  0
    6.0168    1.2997    1.1235 H   0  0  0  0  0  0  0  0  0  0  0  0
    5.0206   -1.8648    0.6740 H   0  0  0  0  0  0  0  0  0  0  0  0
    3.9283   -1.7216    2.0646 H   0  0  0  0  0  0  0  0  0  0  0  0
    5.5671   -1.1065    2.1803 H   0  0  0  0  0  0  0  0  0  0  0  0
   -2.1122    1.8380    1.3472 H   0  0  0  0  0  0  0  0  0  0  0  0
   -0.8971    0.8238    2.1387 H   0  0  0  0  0  0  0  0  0  0  0  0
   -0.4510    1.7980    0.7529 H   0  0  0  0  0  0  0  0  0  0  0  0
    3.4484   -0.5036    1.1340 H   0  0  0  0  0  0  0  0  0  0  0  0
    0.0556   -0.4165    1.4960 H   0  0  0  0  0  0  0  0  0  0  0  0
   -0.0542    0.4250   -1.4930 H   0  0  0  0  0  0  0  0  0  0  0  0
   -3.4498    0.4881   -1.1394 H   0  0  0  0  0  0  0  0  0  0  0  0
  1  2  1  0
  2  3  2  0
  3  4  1  0
  4  5  2  0
  5  6  1  0
  6  7  2  0
  5  8  1  0
  8  9  1  0
  9 10  2  0
 10 11  1  0
 11 12  2  0
 12 13  1  0
 13 14  2  0
  8 15  1  0
 15 16  1  0
 16 17  1  0
 17 18  1  0
 18 19  1  0
 19 20  1  0
 20 21  1  0
 21 22  1  0
 22 23  1  0
  8 24  1  0
 25 26  1  0
 26 27  2  0
 26 28  1  0
 28 29  2  0
 29 30  1  0
 30 31  2  0
 30 32  1  0
  7  2  1  0
 14  9  1  0
 22 18  1  0
  3 33  1  0
  4 34  1  0
  6 35  1  0
  7 36  1  0
 10 37  1  0
 11 38  1  0
 12 39  1  0
 13 40  1  0
 14 41  1  0
 16 42  1  0
 16 43  1  0
 17 44  1  0
 17 45  1  0
 18 46  1  6
 19 47  1  0
 19 48  1  0
 20 49  1  0
 20 50  1  0
 21 51  1  0
 21 52  1  0
 23 53  1  0
 23 54  1  0
 23 55  1  0
 24 56  1  0
 24 57  1  0
 24 58  1  0
 25 59  1  0
 28 60  1  0
 29 61  1  0
 32 62  1  0
M  END
