
     RDKit          3D

 43 46  0  0  0  0  0  0  0  0999 V2000
    7.8126    2.9438    0.2313 O   0  0  0  0  0  0  0  0  0  0  0  0
    6.7948    2.0381    0.2548 C   0  0  0  0  0  0  0  0  0  0  0  0
    5.4954    2.5232    0.1780 C   0  0  0  0  0  0  0  0  0  0  0  0
    4.4193    1.6314    0.1984 C   0  0  0  0  0  0  0  0  0  0  0  0
    4.6379    0.2482    0.2957 C   0  0  0  0  0  0  0  0  0  0  0  0
    5.9615   -0.2169    0.3724 C   0  0  0  0  0  0  0  0  0  0  0  0
    7.0397    0.6736    0.3522 C   0  0  0  0  0  0  0  0  0  0  0  0
    3.5369   -0.7066    0.3188 C   0  0  0  0  0  0  0  0  0  0  0  0
    3.5586   -2.0205    0.4082 N   0  0  0  0  0  0  0  0  0  0  0  0
    2.2416   -2.4302    0.3873 N   0  0  0  0  0  0  0  0  0  0  0  0
    1.5042   -1.3440    0.2834 C   0  0  0  0  0  0  0  0  0  0  0  0
    2.2647   -0.2068    0.2337 O   0  0  0  0  0  0  0  0  0  0  0  0
    0.1622   -1.2091    0.2216 N   0  0  0  0  0  0  0  0  0  0  0  0
   -0.6603   -2.4133    0.0852 C   0  0  0  0  0  0  0  0  0  0  0  0
   -1.9173   -2.1481   -0.7605 C   0  0  0  0  0  0  0  0  0  0  0  0
   -2.7111   -1.0183   -0.2636 N   0  0  0  0  0  0  0  0  0  0  0  0
   -1.9512    0.0863    0.3427 C   0  0  0  0  0  0  0  0  0  0  0  0
   -0.4563    0.0886   -0.0332 C   0  0  0  0  0  0  0  0  0  0  0  0
   -4.0923   -1.0367   -0.4682 C   0  0  0  0  0  0  0  0  0  0  0  0
   -4.6247   -1.9066   -1.1666 O   0  0  0  0  0  0  0  0  0  0  0  0
   -5.0017   -0.0156    0.1408 C   0  0  0  0  0  0  0  0  0  0  0  0
   -4.5254    0.7575    1.1558 N   0  0  0  0  0  0  0  0  0  0  0  0
   -5.4107    1.6363    1.6721 C   0  0  0  0  0  0  0  0  0  0  0  0
   -4.9945    2.4315    2.6666 F   0  0  0  0  0  0  0  0  0  0  0  0
   -6.7116    1.7495    1.2105 C   0  0  0  0  0  0  0  0  0  0  0  0
   -7.1981    0.9812    0.2077 N   0  0  0  0  0  0  0  0  0  0  0  0
   -6.3257    0.0878   -0.3136 C   0  0  0  0  0  0  0  0  0  0  0  0
   -6.8629   -0.6829   -1.3047 O   0  0  0  0  0  0  0  0  0  0  0  0
    8.6566    2.4667    0.2927 H   0  0  0  0  0  0  0  0  0  0  0  0
    5.3190    3.5927    0.1025 H   0  0  0  0  0  0  0  0  0  0  0  0
    3.4098    2.0316    0.1380 H   0  0  0  0  0  0  0  0  0  0  0  0
    6.1602   -1.2854    0.4492 H   0  0  0  0  0  0  0  0  0  0  0  0
    8.0509    0.2837    0.4131 H   0  0  0  0  0  0  0  0  0  0  0  0
   -0.1016   -3.2338   -0.3818 H   0  0  0  0  0  0  0  0  0  0  0  0
   -0.9583   -2.7443    1.0875 H   0  0  0  0  0  0  0  0  0  0  0  0
   -2.5319   -3.0542   -0.7958 H   0  0  0  0  0  0  0  0  0  0  0  0
   -1.6321   -1.9029   -1.7911 H   0  0  0  0  0  0  0  0  0  0  0  0
   -2.3876    1.0411    0.0345 H   0  0  0  0  0  0  0  0  0  0  0  0
   -2.0510   -0.0190    1.4293 H   0  0  0  0  0  0  0  0  0  0  0  0
   -0.3493    0.3324   -1.0977 H   0  0  0  0  0  0  0  0  0  0  0  0
    0.0369    0.8818    0.5418 H   0  0  0  0  0  0  0  0  0  0  0  0
   -7.3984    2.4675    1.6425 H   0  0  0  0  0  0  0  0  0  0  0  0
   -6.2090   -1.3794   -1.5297 H   0  0  0  0  0  0  0  0  0  0  0  0
  1  2  1  0
  2  3  2  0
  3  4  1  0
  4  5  2  0
  5  6  1  0
  6  7  2  0
  5  8  1  0
  8  9  2  0
  9 10  1  0
 10 11  2  0
 11 12  1  0
 11 13  1  0
 13 14  1  0
 14 15  1  0
 15 16  1  0
 16 17  1  0
 17 18  1  0
 16 19  1  0
 19 20  2  0
 19 21  1  0
 21 22  2  0
 22 23  1  0
 23 24  1  0
 23 25  2  0
 25 26  1  0
 26 27  2  0
 27 28  1  0
  7  2  1  0
 12  8  1  0
 18 13  1  0
 27 21  1  0
  1 29  1  0
  3 30  1  0
  4 31  1  0
  6 32  1  0
  7 33  1  0
 14 34  1  0
 14 35  1  0
 15 36  1  0
 15 37  1  0
 17 38  1  0
 17 39  1  0
 18 40  1  0
 18 41  1  0
 25 42  1  0
 28 43  1  0
M  END
