
     RDKit          3D

 46 50  0  0  0  0  0  0  0  0999 V2000
    1.4982    1.9092   -3.6734 O   0  0  0  0  0  0  0  0  0  0  0  0
    1.1333    1.2151   -2.7283 C   0  0  0  0  0  0  0  0  0  0  0  0
    1.5574   -0.2264   -2.5665 C   0  0  0  0  0  0  0  0  0  0  0  0
    1.5369   -0.7122   -1.1100 C   0  0  0  0  0  0  0  0  0  0  0  0
    2.8654   -0.4885   -0.3861 C   0  0  0  0  0  0  0  0  0  0  0  0
    3.4149   -1.5485    0.3795 C   0  0  0  0  0  0  0  0  0  0  0  0
    4.6170   -1.3983    1.0792 C   0  0  0  0  0  0  0  0  0  0  0  0
    5.2510   -0.1799    1.0066 C   0  0  0  0  0  0  0  0  0  0  0  0
    4.7280    0.8609    0.2791 C   0  0  0  0  0  0  0  0  0  0  0  0
    3.5440    0.7433   -0.4215 C   0  0  0  0  0  0  0  0  0  0  0  0
    5.5002    1.9790    0.3442 O   0  0  0  0  0  0  0  0  0  0  0  0
    6.5736    1.5174    1.1910 C   0  0  0  0  0  0  0  0  0  0  0  0
    6.4191    0.1487    1.6193 O   0  0  0  0  0  0  0  0  0  0  0  0
    0.3882   -0.1125   -0.3473 C   0  0  0  0  0  0  0  0  0  0  0  0
   -0.2037    1.0394   -0.7018 C   0  0  0  0  0  0  0  0  0  0  0  0
    0.2326    1.6981   -1.8163 N   0  0  0  0  0  0  0  0  0  0  0  0
   -1.2014    1.5339    0.0816 N   0  0  0  0  0  0  0  0  0  0  0  0
   -1.5739    0.9012    1.2234 C   0  0  0  0  0  0  0  0  0  0  0  0
   -1.0888   -0.2197    1.6336 N   0  0  0  0  0  0  0  0  0  0  0  0
   -0.1574   -0.8499    0.8376 C   0  0  0  0  0  0  0  0  0  0  0  0
    0.2162   -1.9968    1.0597 O   0  0  0  0  0  0  0  0  0  0  0  0
   -2.7807    1.7381    2.1655 S   0  0  0  0  0  0  0  0  0  0  0  0
   -3.7935    0.3310    2.7096 C   0  0  0  0  0  0  0  0  0  0  0  0
   -4.5558   -0.3098    1.5751 C   0  0  0  0  0  0  0  0  0  0  0  0
   -4.1521   -1.5504    1.0546 C   0  0  0  0  0  0  0  0  0  0  0  0
   -4.8458   -2.1400   -0.0057 C   0  0  0  0  0  0  0  0  0  0  0  0
   -5.9511   -1.4960   -0.5573 C   0  0  0  0  0  0  0  0  0  0  0  0
   -6.3536   -0.2692   -0.0439 C   0  0  0  0  0  0  0  0  0  0  0  0
   -5.6710    0.3273    1.0117 C   0  0  0  0  0  0  0  0  0  0  0  0
   -7.4145    0.3519   -0.5758 F   0  0  0  0  0  0  0  0  0  0  0  0
    0.8464   -0.8185   -3.1579 H   0  0  0  0  0  0  0  0  0  0  0  0
    2.5481   -0.3595   -3.0166 H   0  0  0  0  0  0  0  0  0  0  0  0
    1.3843   -1.7985   -1.1813 H   0  0  0  0  0  0  0  0  0  0  0  0
    2.8933   -2.5038    0.4438 H   0  0  0  0  0  0  0  0  0  0  0  0
    5.0309   -2.2114    1.6647 H   0  0  0  0  0  0  0  0  0  0  0  0
    3.1743    1.6005   -0.9719 H   0  0  0  0  0  0  0  0  0  0  0  0
    7.5176    1.6086    0.6414 H   0  0  0  0  0  0  0  0  0  0  0  0
    6.6202    2.1592    2.0784 H   0  0  0  0  0  0  0  0  0  0  0  0
   -0.1173    2.6252   -2.0231 H   0  0  0  0  0  0  0  0  0  0  0  0
   -1.6151    2.4281   -0.1388 H   0  0  0  0  0  0  0  0  0  0  0  0
   -4.5128    0.7002    3.4500 H   0  0  0  0  0  0  0  0  0  0  0  0
   -3.1748   -0.4037    3.2367 H   0  0  0  0  0  0  0  0  0  0  0  0
   -3.2885   -2.0674    1.4732 H   0  0  0  0  0  0  0  0  0  0  0  0
   -4.5226   -3.1014   -0.3975 H   0  0  0  0  0  0  0  0  0  0  0  0
   -6.5007   -1.9416   -1.3800 H   0  0  0  0  0  0  0  0  0  0  0  0
   -6.0162    1.2876    1.3844 H   0  0  0  0  0  0  0  0  0  0  0  0
  1  2  2  0
  2  3  1  0
  3  4  1  0
  4  5  1  0
  5  6  2  0
  6  7  1  0
  7  8  2  0
  8  9  1  0
  9 10  2  0
  9 11  1  0
 11 12  1  0
 12 13  1  0
  4 14  1  0
 14 15  2  0
 15 16  1  0
 15 17  1  0
 17 18  1  0
 18 19  2  0
 19 20  1  0
 20 21  2  0
 18 22  1  0
 22 23  1  0
 23 24  1  0
 24 25  2  0
 25 26  1  0
 26 27  2  0
 27 28  1  0
 28 29  2  0
 28 30  1  0
 16  2  1  0
 29 24  1  0
 10  5  1  0
 20 14  1  0
 13  8  1  0
  3 31  1  0
  3 32  1  0
  4 33  1  0
  6 34  1  0
  7 35  1  0
 10 36  1  0
 12 37  1  0
 12 38  1  0
 16 39  1  0
 17 40  1  0
 23 41  1  0
 23 42  1  0
 25 43  1  0
 26 44  1  0
 27 45  1  0
 29 46  1  0
M  END
