
     RDKit          3D

 55 58  0  0  0  0  0  0  0  0999 V2000
   -4.2476   -4.6345    1.2899 C   0  0  0  0  0  0  0  0  0  0  0  0
   -3.3035   -3.5578    0.8435 C   0  0  0  0  0  0  0  0  0  0  0  0
   -2.1220   -3.3189    1.5526 C   0  0  0  0  0  0  0  0  0  0  0  0
   -1.2199   -2.3415    1.1214 C   0  0  0  0  0  0  0  0  0  0  0  0
   -1.4834   -1.5807   -0.0244 C   0  0  0  0  0  0  0  0  0  0  0  0
   -2.6536   -1.8450   -0.7487 C   0  0  0  0  0  0  0  0  0  0  0  0
   -3.5544   -2.8249   -0.3201 C   0  0  0  0  0  0  0  0  0  0  0  0
   -0.5607   -0.5660   -0.4638 N   0  0  0  0  0  0  0  0  0  0  0  0
   -0.9706    0.7593   -0.7617 C   0  0  0  0  0  0  0  0  0  0  0  0
   -2.3829    1.1930   -0.3948 C   0  0  0  0  0  0  0  0  0  0  0  0
   -2.5474    2.7074   -0.1407 C   0  0  0  0  0  0  0  0  0  0  0  0
   -4.0475    3.0457   -0.0597 C   0  0  0  0  0  0  0  0  0  0  0  0
   -1.8945    3.1148    1.1968 C   0  0  0  0  0  0  0  0  0  0  0  0
   -1.9213    3.4771   -1.3076 C   0  0  0  0  0  0  0  0  0  0  0  0
   -0.4930    3.0587   -1.5654 C   0  0  0  0  0  0  0  0  0  0  0  0
    0.3151    3.8537   -2.0455 O   0  0  0  0  0  0  0  0  0  0  0  0
   -0.0863    1.6442   -1.2693 C   0  0  0  0  0  0  0  0  0  0  0  0
    1.2769    1.2485   -1.5290 C   0  0  0  0  0  0  0  0  0  0  0  0
    1.7155    0.0283   -1.2019 C   0  0  0  0  0  0  0  0  0  0  0  0
    0.7911   -0.9745   -0.6161 C   0  0  0  0  0  0  0  0  0  0  0  0
    1.2371   -2.0826   -0.3176 O   0  0  0  0  0  0  0  0  0  0  0  0
    3.1176   -0.2978   -1.5398 C   0  0  0  0  0  0  0  0  0  0  0  0
    3.4217   -0.4759   -2.7186 O   0  0  0  0  0  0  0  0  0  0  0  0
    4.0395   -0.3138   -0.5098 N   0  0  0  0  0  0  0  0  0  0  0  0
    3.7502   -0.0838    0.9105 C   0  0  0  0  0  0  0  0  0  0  0  0
    4.7897   -0.7732    1.7992 C   0  0  0  0  0  0  0  0  0  0  0  0
    6.1298   -0.3271    1.5535 O   0  0  0  0  0  0  0  0  0  0  0  0
    6.3798    0.0525    0.1920 C   0  0  0  0  0  0  0  0  0  0  0  0
    5.4400   -0.6059   -0.8212 C   0  0  0  0  0  0  0  0  0  0  0  0
   -3.8904   -5.6114    0.9487 H   0  0  0  0  0  0  0  0  0  0  0  0
   -4.3316   -4.6461    2.3818 H   0  0  0  0  0  0  0  0  0  0  0  0
   -5.2526   -4.4695    0.8878 H   0  0  0  0  0  0  0  0  0  0  0  0
   -1.8899   -3.8973    2.4443 H   0  0  0  0  0  0  0  0  0  0  0  0
   -0.3138   -2.1775    1.6994 H   0  0  0  0  0  0  0  0  0  0  0  0
   -2.8581   -1.3249   -1.6800 H   0  0  0  0  0  0  0  0  0  0  0  0
   -4.4466   -3.0210   -0.9107 H   0  0  0  0  0  0  0  0  0  0  0  0
   -2.7210    0.6740    0.5104 H   0  0  0  0  0  0  0  0  0  0  0  0
   -3.0510    0.8969   -1.2131 H   0  0  0  0  0  0  0  0  0  0  0  0
   -4.2024    4.1157    0.1195 H   0  0  0  0  0  0  0  0  0  0  0  0
   -4.5333    2.4957    0.7540 H   0  0  0  0  0  0  0  0  0  0  0  0
   -4.5649    2.7873   -0.9907 H   0  0  0  0  0  0  0  0  0  0  0  0
   -2.0181    4.1881    1.3820 H   0  0  0  0  0  0  0  0  0  0  0  0
   -2.3550    2.5800    2.0356 H   0  0  0  0  0  0  0  0  0  0  0  0
   -0.8215    2.8999    1.2233 H   0  0  0  0  0  0  0  0  0  0  0  0
   -1.9313    4.5537   -1.0971 H   0  0  0  0  0  0  0  0  0  0  0  0
   -2.4810    3.3130   -2.2367 H   0  0  0  0  0  0  0  0  0  0  0  0
    1.9411    1.9696   -2.0016 H   0  0  0  0  0  0  0  0  0  0  0  0
    3.7861    1.0011    1.0609 H   0  0  0  0  0  0  0  0  0  0  0  0
    2.7481   -0.4313    1.1687 H   0  0  0  0  0  0  0  0  0  0  0  0
    4.7642   -1.8576    1.6446 H   0  0  0  0  0  0  0  0  0  0  0  0
    4.5686   -0.5874    2.8545 H   0  0  0  0  0  0  0  0  0  0  0  0
    6.2881    1.1431    0.1366 H   0  0  0  0  0  0  0  0  0  0  0  0
    7.4202   -0.2003   -0.0353 H   0  0  0  0  0  0  0  0  0  0  0  0
    5.5470   -1.6964   -0.7820 H   0  0  0  0  0  0  0  0  0  0  0  0
    5.6836   -0.2769   -1.8368 H   0  0  0  0  0  0  0  0  0  0  0  0
  1  2  1  0
  2  3  2  0
  3  4  1  0
  4  5  2  0
  5  6  1  0
  6  7  2  0
  5  8  1  0
  8  9  1  0
  9 10  1  0
 10 11  1  0
 11 12  1  0
 11 13  1  0
 11 14  1  0
 14 15  1  0
 15 16  2  0
 15 17  1  0
 17 18  1  0
 18 19  2  0
 19 20  1  0
 20 21  2  0
 19 22  1  0
 22 23  2  0
 22 24  1  0
 24 25  1  0
 25 26  1  0
 26 27  1  0
 27 28  1  0
 28 29  1  0
  7  2  1  0
 20  8  1  0
 29 24  1  0
 17  9  2  0
  1 30  1  0
  1 31  1  0
  1 32  1  0
  3 33  1  0
  4 34  1  0
  6 35  1  0
  7 36  1  0
 10 37  1  0
 10 38  1  0
 12 39  1  0
 12 40  1  0
 12 41  1  0
 13 42  1  0
 13 43  1  0
 13 44  1  0
 14 45  1  0
 14 46  1  0
 18 47  1  0
 25 48  1  0
 25 49  1  0
 26 50  1  0
 26 51  1  0
 28 52  1  0
 28 53  1  0
 29 54  1  0
 29 55  1  0
M  END
