
     RDKit          3D

 55 57  0  0  0  0  0  0  0  0999 V2000
    7.6873    2.4841    1.3960 O   0  0  0  0  0  0  0  0  0  0  0  0
    7.7260    1.4123    0.5799 C   0  0  0  0  0  0  0  0  0  0  0  0
    8.6600    1.2517   -0.1849 O   0  0  0  0  0  0  0  0  0  0  0  0
    6.5381    0.5121    0.7828 C   0  0  0  0  0  0  0  0  0  0  0  0
    6.4841   -0.5911   -0.2767 C   0  0  0  0  0  0  0  0  0  0  0  0
    5.3185   -1.5686   -0.0832 C   0  0  1  0  0  0  0  0  0  0  0  0
    5.5122   -2.4000    1.1905 C   0  0  0  0  0  0  0  0  0  0  0  0
    6.4932   -3.0622    1.4873 O   0  0  0  0  0  0  0  0  0  0  0  0
    4.4537   -2.3469    2.0351 O   0  0  0  0  0  0  0  0  0  0  0  0
    4.0207   -0.8926   -0.0624 N   0  0  0  0  0  0  0  0  0  0  0  0
    3.4177   -0.4433   -1.2143 C   0  0  0  0  0  0  0  0  0  0  0  0
    3.9513   -0.5050   -2.3154 O   0  0  0  0  0  0  0  0  0  0  0  0
    2.0378    0.0987   -1.0722 C   0  0  0  0  0  0  0  0  0  0  0  0
    1.5703    0.6447    0.1252 C   0  0  0  0  0  0  0  0  0  0  0  0
    0.2624    1.1379    0.2038 C   0  0  0  0  0  0  0  0  0  0  0  0
   -0.6118    1.0809   -0.8914 C   0  0  0  0  0  0  0  0  0  0  0  0
   -0.1076    0.5875   -2.0986 C   0  0  0  0  0  0  0  0  0  0  0  0
    1.1991    0.0915   -2.1897 C   0  0  0  0  0  0  0  0  0  0  0  0
   -1.8840    1.6310   -0.7571 N   0  0  0  0  0  0  0  0  0  0  0  0
   -3.0008    1.2089   -1.6190 C   0  0  0  0  0  0  0  0  0  0  0  0
   -3.4149   -0.2674   -1.3906 C   0  0  0  0  0  0  0  0  0  0  0  0
   -4.7391   -0.5929   -2.1435 C   0  0  0  0  0  0  0  0  0  0  0  0
   -5.8989   -0.0237   -1.4452 N   0  0  0  0  0  0  0  0  0  0  0  0
   -5.9646   -0.0388   -0.0475 C   0  0  0  0  0  0  0  0  0  0  0  0
   -4.8212   -0.2781    0.6463 C   0  0  0  0  0  0  0  0  0  0  0  0
   -3.5894   -0.5601    0.0471 N   0  0  0  0  0  0  0  0  0  0  0  0
   -4.9019   -0.1973    2.1312 C   0  0  0  0  0  0  0  0  0  0  0  0
   -3.9000   -0.2499    2.8412 O   0  0  0  0  0  0  0  0  0  0  0  0
   -6.1531   -0.0315    2.6402 N   0  0  0  0  0  0  0  0  0  0  0  0
   -7.2309    0.1921    1.8471 C   0  0  0  0  0  0  0  0  0  0  0  0
   -7.1744    0.1954    0.5559 N   0  0  0  0  0  0  0  0  0  0  0  0
   -8.4096    0.4124    2.4811 N   0  0  0  0  0  0  0  0  0  0  0  0
    8.5036    2.9785    1.1725 H   0  0  0  0  0  0  0  0  0  0  0  0
    6.6147    0.0797    1.7858 H   0  0  0  0  0  0  0  0  0  0  0  0
    5.6342    1.1284    0.7276 H   0  0  0  0  0  0  0  0  0  0  0  0
    7.4296   -1.1490   -0.2690 H   0  0  0  0  0  0  0  0  0  0  0  0
    6.4142   -0.1256   -1.2680 H   0  0  0  0  0  0  0  0  0  0  0  0
    5.2966   -2.2825   -0.9159 H   0  0  0  0  0  0  0  0  0  0  0  0
    4.7247   -2.9302    2.7773 H   0  0  0  0  0  0  0  0  0  0  0  0
    3.4551   -1.0623    0.7634 H   0  0  0  0  0  0  0  0  0  0  0  0
    2.2103    0.7274    0.9980 H   0  0  0  0  0  0  0  0  0  0  0  0
   -0.0722    1.5766    1.1419 H   0  0  0  0  0  0  0  0  0  0  0  0
   -0.7113    0.5900   -3.0004 H   0  0  0  0  0  0  0  0  0  0  0  0
    1.5609   -0.2930   -3.1413 H   0  0  0  0  0  0  0  0  0  0  0  0
   -2.1821    1.7211    0.2124 H   0  0  0  0  0  0  0  0  0  0  0  0
   -3.8423    1.8715   -1.3834 H   0  0  0  0  0  0  0  0  0  0  0  0
   -2.7697    1.3866   -2.6753 H   0  0  0  0  0  0  0  0  0  0  0  0
   -2.6268   -0.9242   -1.7755 H   0  0  0  0  0  0  0  0  0  0  0  0
   -4.7058   -0.2168   -3.1711 H   0  0  0  0  0  0  0  0  0  0  0  0
   -4.8689   -1.6809   -2.1922 H   0  0  0  0  0  0  0  0  0  0  0  0
   -6.8127   -0.2279   -1.8383 H   0  0  0  0  0  0  0  0  0  0  0  0
   -2.7928   -0.3627    0.6508 H   0  0  0  0  0  0  0  0  0  0  0  0
   -6.2222    0.0735    3.6379 H   0  0  0  0  0  0  0  0  0  0  0  0
   -8.5788   -0.1480    3.3058 H   0  0  0  0  0  0  0  0  0  0  0  0
   -9.1883    0.3784    1.8295 H   0  0  0  0  0  0  0  0  0  0  0  0
  1  2  1  0
  2  3  2  0
  2  4  1  0
  4  5  1  0
  5  6  1  0
  6  7  1  0
  7  8  2  0
  7  9  1  0
  6 10  1  0
 10 11  1  0
 11 12  2  0
 11 13  1  0
 13 14  2  0
 14 15  1  0
 15 16  2  0
 16 17  1  0
 17 18  2  0
 16 19  1  0
 19 20  1  0
 20 21  1  0
 21 22  1  0
 22 23  1  0
 23 24  1  0
 24 25  2  0
 25 26  1  0
 25 27  1  0
 27 28  2  0
 27 29  1  0
 29 30  1  0
 30 31  2  0
 30 32  1  0
 18 13  1  0
 26 21  1  0
 31 24  1  0
  1 33  1  0
  4 34  1  0
  4 35  1  0
  5 36  1  0
  5 37  1  0
  6 38  1  6
  9 39  1  0
 10 40  1  0
 14 41  1  0
 15 42  1  0
 17 43  1  0
 18 44  1  0
 19 45  1  0
 20 46  1  0
 20 47  1  0
 21 48  1  0
 22 49  1  0
 22 50  1  0
 23 51  1  0
 26 52  1  0
 29 53  1  0
 32 54  1  0
 32 55  1  0
M  END
