
     RDKit          3D

 15 15  0  0  0  0  0  0  0  0999 V2000
   -2.6923    1.2276   -0.9451 F   0  0  0  0  0  0  0  0  0  0  0  0
   -1.5686    0.4882   -0.8345 C   0  0  0  0  0  0  0  0  0  0  0  0
   -1.3953   -0.5326   -1.6835 C   0  0  0  0  0  0  0  0  0  0  0  0
   -0.2776   -1.3163   -1.6017 N   0  0  0  0  0  0  0  0  0  0  0  0
    0.6864   -1.0882   -0.6434 C   0  0  0  0  0  0  0  0  0  0  0  0
    1.6571   -1.8088   -0.4912 O   0  0  0  0  0  0  0  0  0  0  0  0
    0.4142    0.1293    0.2457 C   0  0  0  0  0  0  0  0  0  0  0  0
   -0.6802    0.8477    0.1454 N   0  0  0  0  0  0  0  0  0  0  0  0
    1.4043    0.5658    1.3141 C   0  0  0  0  0  0  0  0  0  0  0  0
    2.6065    0.5610    1.1193 O   0  0  0  0  0  0  0  0  0  0  0  0
    0.8281    1.0219    2.4719 N   0  0  0  0  0  0  0  0  0  0  0  0
   -2.1258   -0.7759   -2.4465 H   0  0  0  0  0  0  0  0  0  0  0  0
   -0.1395   -2.1094   -2.2169 H   0  0  0  0  0  0  0  0  0  0  0  0
    1.4343    1.5054    3.1207 H   0  0  0  0  0  0  0  0  0  0  0  0
   -0.1515    1.2842    2.4456 H   0  0  0  0  0  0  0  0  0  0  0  0
  1  2  1  0
  2  3  2  0
  3  4  1  0
  4  5  1  0
  5  6  2  0
  5  7  1  0
  7  8  2  0
  7  9  1  0
  9 10  2  0
  9 11  1  0
  8  2  1  0
  3 12  1  0
  4 13  1  0
 11 14  1  0
 11 15  1  0
M  END
