
     RDKit          3D

 66 69  0  0  0  0  0  0  0  0999 V2000
   -1.4316    1.0109    2.6139 O   0  0  0  0  0  0  0  0  0  0  0  0
   -1.9012    0.5553    1.5707 C   0  0  0  0  0  0  0  0  0  0  0  0
   -0.9768    0.1806    0.4742 C   0  0  0  0  0  0  0  0  0  0  0  0
    0.1192    1.0282    0.2135 C   0  0  0  0  0  0  0  0  0  0  0  0
    0.3453    2.1405    0.9896 O   0  0  0  0  0  0  0  0  0  0  0  0
    0.9970    0.7801   -0.8532 C   0  0  0  0  0  0  0  0  0  0  0  0
    2.1256    1.7457   -1.1798 C   0  0  0  0  0  0  0  0  0  0  0  0
    3.3824    1.5910   -0.3367 C   0  0  0  0  0  0  0  0  0  0  0  0
    3.7196    2.5481    0.6380 C   0  0  0  0  0  0  0  0  0  0  0  0
    2.9078    3.6466    0.7372 O   0  0  0  0  0  0  0  0  0  0  0  0
    4.8550    2.4167    1.4599 C   0  0  0  0  0  0  0  0  0  0  0  0
    5.2060    3.4824    2.4644 C   0  0  0  0  0  0  0  0  0  0  0  0
    5.6570    1.2716    1.3022 C   0  0  0  0  0  0  0  0  0  0  0  0
    5.4070    0.3413    0.2828 C   0  0  0  0  0  0  0  0  0  0  0  0
    4.2546    0.5036   -0.5155 C   0  0  0  0  0  0  0  0  0  0  0  0
    3.9477   -0.3923   -1.5179 O   0  0  0  0  0  0  0  0  0  0  0  0
    6.3115   -0.8183    0.0055 C   0  0  0  0  0  0  0  0  0  0  0  0
    5.8499   -1.7825   -0.6108 O   0  0  0  0  0  0  0  0  0  0  0  0
    7.7597   -0.7831    0.4123 C   0  0  0  0  0  0  0  0  0  0  0  0
    6.6940    1.0528    2.1721 O   0  0  0  0  0  0  0  0  0  0  0  0
    0.7627   -0.3744   -1.6219 C   0  0  0  0  0  0  0  0  0  0  0  0
   -0.2986   -1.2590   -1.3470 C   0  0  0  0  0  0  0  0  0  0  0  0
   -1.1641   -0.9841   -0.2848 C   0  0  0  0  0  0  0  0  0  0  0  0
   -2.1775   -1.8262    0.0854 O   0  0  0  0  0  0  0  0  0  0  0  0
   -2.4641   -3.0038   -0.6930 C   0  0  0  0  0  0  0  0  0  0  0  0
   -3.8802   -2.8270   -1.2520 C   0  0  0  0  0  0  0  0  0  0  0  0
   -2.4407   -4.1814    0.2882 C   0  0  0  0  0  0  0  0  0  0  0  0
   -1.5121   -3.2786   -1.8258 C   0  0  0  0  0  0  0  0  0  0  0  0
   -0.4982   -2.4691   -2.1380 C   0  0  0  0  0  0  0  0  0  0  0  0
    1.5862   -0.6757   -2.6794 O   0  0  0  0  0  0  0  0  0  0  0  0
   -3.3758    0.4854    1.4013 C   0  0  0  0  0  0  0  0  0  0  0  0
   -3.9906    0.7343    0.2340 C   0  0  0  0  0  0  0  0  0  0  0  0
   -5.4471    0.6955    0.0204 C   0  0  0  0  0  0  0  0  0  0  0  0
   -5.9244    0.4988   -1.2839 C   0  0  0  0  0  0  0  0  0  0  0  0
   -7.2954    0.4605   -1.5485 C   0  0  0  0  0  0  0  0  0  0  0  0
   -8.2090    0.6305   -0.5123 C   0  0  0  0  0  0  0  0  0  0  0  0
   -7.7510    0.8454    0.7858 C   0  0  0  0  0  0  0  0  0  0  0  0
   -6.3789    0.8838    1.0495 C   0  0  0  0  0  0  0  0  0  0  0  0
   -0.1613    2.0417    1.8238 H   0  0  0  0  0  0  0  0  0  0  0  0
    2.4078    1.6625   -2.2373 H   0  0  0  0  0  0  0  0  0  0  0  0
    1.7292    2.7669   -1.1210 H   0  0  0  0  0  0  0  0  0  0  0  0
    3.0301    4.0955    1.5887 H   0  0  0  0  0  0  0  0  0  0  0  0
    5.0896    4.4783    2.0252 H   0  0  0  0  0  0  0  0  0  0  0  0
    6.2509    3.4236    2.7850 H   0  0  0  0  0  0  0  0  0  0  0  0
    4.5644    3.3971    3.3463 H   0  0  0  0  0  0  0  0  0  0  0  0
    4.5548   -1.1683   -1.4206 H   0  0  0  0  0  0  0  0  0  0  0  0
    8.1767    0.2192    0.2719 H   0  0  0  0  0  0  0  0  0  0  0  0
    7.8720   -1.1193    1.4461 H   0  0  0  0  0  0  0  0  0  0  0  0
    8.3259   -1.4564   -0.2398 H   0  0  0  0  0  0  0  0  0  0  0  0
    6.4054    1.3139    3.0637 H   0  0  0  0  0  0  0  0  0  0  0  0
   -4.5958   -2.6313   -0.4440 H   0  0  0  0  0  0  0  0  0  0  0  0
   -3.9287   -1.9647   -1.9276 H   0  0  0  0  0  0  0  0  0  0  0  0
   -4.2160   -3.7117   -1.8039 H   0  0  0  0  0  0  0  0  0  0  0  0
   -2.7308   -5.1209   -0.1933 H   0  0  0  0  0  0  0  0  0  0  0  0
   -3.1190   -4.0009    1.1305 H   0  0  0  0  0  0  0  0  0  0  0  0
   -1.4417   -4.3103    0.7201 H   0  0  0  0  0  0  0  0  0  0  0  0
   -1.6694   -4.1782   -2.4136 H   0  0  0  0  0  0  0  0  0  0  0  0
    0.1736   -2.6865   -2.9610 H   0  0  0  0  0  0  0  0  0  0  0  0
    2.5041   -0.4970   -2.3798 H   0  0  0  0  0  0  0  0  0  0  0  0
   -3.9151    0.2770    2.3172 H   0  0  0  0  0  0  0  0  0  0  0  0
   -3.4053    0.9749   -0.6509 H   0  0  0  0  0  0  0  0  0  0  0  0
   -5.2309    0.3616   -2.1110 H   0  0  0  0  0  0  0  0  0  0  0  0
   -7.6471    0.2979   -2.5637 H   0  0  0  0  0  0  0  0  0  0  0  0
   -9.2754    0.6018   -0.7177 H   0  0  0  0  0  0  0  0  0  0  0  0
   -8.4617    0.9895    1.5957 H   0  0  0  0  0  0  0  0  0  0  0  0
   -6.0571    1.0700    2.0706 H   0  0  0  0  0  0  0  0  0  0  0  0
  1  2  2  0
  2  3  1  0
  3  4  2  0
  4  5  1  0
  4  6  1  0
  6  7  1  0
  7  8  1  0
  8  9  2  0
  9 10  1  0
  9 11  1  0
 11 12  1  0
 11 13  2  0
 13 14  1  0
 14 15  2  0
 15 16  1  0
 14 17  1  0
 17 18  2  0
 17 19  1  0
 13 20  1  0
  6 21  2  0
 21 22  1  0
 22 23  2  0
 23 24  1  0
 24 25  1  0
 25 26  1  0
 25 27  1  0
 25 28  1  0
 28 29  2  0
 21 30  1  0
  2 31  1  0
 31 32  2  0
 32 33  1  0
 33 34  2  0
 34 35  1  0
 35 36  2  0
 36 37  1  0
 37 38  2  0
 23  3  1  0
 38 33  1  0
 15  8  1  0
 29 22  1  0
  5 39  1  0
  7 40  1  0
  7 41  1  0
 10 42  1  0
 12 43  1  0
 12 44  1  0
 12 45  1  0
 16 46  1  0
 19 47  1  0
 19 48  1  0
 19 49  1  0
 20 50  1  0
 26 51  1  0
 26 52  1  0
 26 53  1  0
 27 54  1  0
 27 55  1  0
 27 56  1  0
 28 57  1  0
 29 58  1  0
 30 59  1  0
 31 60  1  0
 32 61  1  0
 34 62  1  0
 35 63  1  0
 36 64  1  0
 37 65  1  0
 38 66  1  0
M  END
