
     RDKit          3D

 48 49  0  0  0  0  0  0  0  0999 V2000
   -5.0830   -0.0823    1.7496 C   0  0  0  0  0  0  0  0  0  0  0  0
   -3.9884    0.6616    0.9895 C   0  0  0  0  0  0  0  0  0  0  0  0
   -3.5572   -0.0155   -0.2445 N   0  0  0  0  0  0  0  0  0  0  0  0
   -2.4159    0.6720   -0.8759 C   0  0  0  0  0  0  0  0  0  0  0  0
   -1.0913    0.5304   -0.1100 C   0  0  0  0  0  0  0  0  0  0  0  0
   -0.6828   -0.9333    0.1079 C   0  0  0  0  0  0  0  0  0  0  0  0
    0.6600   -1.0611    0.8532 C   0  0  0  0  0  0  0  0  0  0  0  0
    1.7269   -0.5411   -0.0081 N   0  0  0  0  0  0  0  0  0  0  0  0
    2.9946   -0.1673    0.4663 C   0  0  0  0  0  0  0  0  0  0  0  0
    3.2692   -0.0376    1.8282 C   0  0  0  0  0  0  0  0  0  0  0  0
    4.5295    0.3623    2.2307 C   0  0  0  0  0  0  0  0  0  0  0  0
    5.5290    0.6668    1.3842 N   0  0  0  0  0  0  0  0  0  0  0  0
    5.2741    0.6063    0.0714 C   0  0  0  0  0  0  0  0  0  0  0  0
    4.0177    0.2126   -0.4539 C   0  0  0  0  0  0  0  0  0  0  0  0
    3.8507    0.2284   -1.8619 C   0  0  0  0  0  0  0  0  0  0  0  0
    4.8928    0.5923   -2.7147 C   0  0  0  0  0  0  0  0  0  0  0  0
    6.1169    0.9518   -2.1728 C   0  0  0  0  0  0  0  0  0  0  0  0
    6.2988    0.9596   -0.7935 C   0  0  0  0  0  0  0  0  0  0  0  0
    7.4123    1.4011   -3.2121 Cl  0  0  0  0  0  0  0  0  0  0  0  0
    0.9277   -2.5304    1.1853 C   0  0  0  0  0  0  0  0  0  0  0  0
   -4.6434   -0.2458   -1.2130 C   0  0  0  0  0  0  0  0  0  0  0  0
   -5.3561    0.9957   -1.7421 C   0  0  0  0  0  0  0  0  0  0  0  0
   -6.0375   -0.0633    1.2153 H   0  0  0  0  0  0  0  0  0  0  0  0
   -5.2457    0.3905    2.7240 H   0  0  0  0  0  0  0  0  0  0  0  0
   -4.8013   -1.1255    1.9275 H   0  0  0  0  0  0  0  0  0  0  0  0
   -3.1397    0.7353    1.6780 H   0  0  0  0  0  0  0  0  0  0  0  0
   -4.3162    1.6884    0.7884 H   0  0  0  0  0  0  0  0  0  0  0  0
   -2.2456    0.2534   -1.8768 H   0  0  0  0  0  0  0  0  0  0  0  0
   -2.6334    1.7381   -1.0177 H   0  0  0  0  0  0  0  0  0  0  0  0
   -1.1448    1.0497    0.8532 H   0  0  0  0  0  0  0  0  0  0  0  0
   -0.3156    1.0456   -0.6900 H   0  0  0  0  0  0  0  0  0  0  0  0
   -0.6260   -1.4430   -0.8627 H   0  0  0  0  0  0  0  0  0  0  0  0
   -1.4588   -1.4422    0.6925 H   0  0  0  0  0  0  0  0  0  0  0  0
    0.5780   -0.4818    1.7796 H   0  0  0  0  0  0  0  0  0  0  0  0
    1.7883   -1.0532   -0.8843 H   0  0  0  0  0  0  0  0  0  0  0  0
    2.5356   -0.2548    2.5931 H   0  0  0  0  0  0  0  0  0  0  0  0
    4.7744    0.4518    3.2853 H   0  0  0  0  0  0  0  0  0  0  0  0
    2.8946   -0.0271   -2.3104 H   0  0  0  0  0  0  0  0  0  0  0  0
    4.7382    0.5967   -3.7902 H   0  0  0  0  0  0  0  0  0  0  0  0
    7.2577    1.2540   -0.3742 H   0  0  0  0  0  0  0  0  0  0  0  0
    1.8692   -2.6533    1.7302 H   0  0  0  0  0  0  0  0  0  0  0  0
    0.1267   -2.9397    1.8100 H   0  0  0  0  0  0  0  0  0  0  0  0
    0.9931   -3.1381    0.2757 H   0  0  0  0  0  0  0  0  0  0  0  0
   -4.2406   -0.8059   -2.0671 H   0  0  0  0  0  0  0  0  0  0  0  0
   -5.3863   -0.9231   -0.7760 H   0  0  0  0  0  0  0  0  0  0  0  0
   -6.1191    0.7002   -2.4701 H   0  0  0  0  0  0  0  0  0  0  0  0
   -5.8622    1.5456   -0.9433 H   0  0  0  0  0  0  0  0  0  0  0  0
   -4.6647    1.6753   -2.2492 H   0  0  0  0  0  0  0  0  0  0  0  0
  1  2  1  0
  2  3  1  0
  3  4  1  0
  4  5  1  0
  5  6  1  0
  6  7  1  0
  7  8  1  0
  8  9  1  0
  9 10  2  0
 10 11  1  0
 11 12  2  0
 12 13  1  0
 13 14  2  0
 14 15  1  0
 15 16  2  0
 16 17  1  0
 17 18  2  0
 17 19  1  0
  7 20  1  0
  3 21  1  0
 21 22  1  0
 14  9  1  0
 18 13  1  0
  1 23  1  0
  1 24  1  0
  1 25  1  0
  2 26  1  0
  2 27  1  0
  4 28  1  0
  4 29  1  0
  5 30  1  0
  5 31  1  0
  6 32  1  0
  6 33  1  0
  7 34  1  0
  8 35  1  0
 10 36  1  0
 11 37  1  0
 15 38  1  0
 16 39  1  0
 18 40  1  0
 20 41  1  0
 20 42  1  0
 20 43  1  0
 21 44  1  0
 21 45  1  0
 22 46  1  0
 22 47  1  0
 22 48  1  0
M  END
