
     RDKit          3D

 43 45  0  0  0  0  0  0  0  0999 V2000
    3.3982    1.8498   -2.1737 C   0  0  0  0  0  0  0  0  0  0  0  0
    3.4057    0.6167   -1.3192 C   0  0  0  0  0  0  0  0  0  0  0  0
    4.5992    0.1458   -0.7634 C   0  0  0  0  0  0  0  0  0  0  0  0
    4.6108   -1.0276   -0.0114 C   0  0  0  0  0  0  0  0  0  0  0  0
    3.4288   -1.7395    0.1930 C   0  0  0  0  0  0  0  0  0  0  0  0
    2.2132   -1.2800   -0.3383 C   0  0  0  0  0  0  0  0  0  0  0  0
    2.2253   -0.1132   -1.1219 C   0  0  0  0  0  0  0  0  0  0  0  0
    0.9541   -2.0944   -0.1296 C   0  0  0  0  0  0  0  0  0  0  0  0
   -0.1324   -1.1785    0.3392 C   0  0  0  0  0  0  0  0  0  0  0  0
   -1.1322   -0.8615   -0.5013 N   0  0  0  0  0  0  0  0  0  0  0  0
   -1.9605   -0.0800    0.2336 N   0  0  0  0  0  0  0  0  0  0  0  0
   -1.5191    0.0896    1.5250 C   0  0  0  0  0  0  0  0  0  0  0  0
   -0.3210   -0.5987    1.6225 C   0  0  0  0  0  0  0  0  0  0  0  0
    0.3271   -0.5612    2.8624 C   0  0  0  0  0  0  0  0  0  0  0  0
    1.5573   -1.1531    3.1310 N   0  0  0  0  0  0  0  0  0  0  0  0
   -0.2499    0.1110    3.8786 N   0  0  0  0  0  0  0  0  0  0  0  0
   -1.4228    0.7309    3.6516 C   0  0  0  0  0  0  0  0  0  0  0  0
   -2.1230    0.7813    2.5083 N   0  0  0  0  0  0  0  0  0  0  0  0
   -3.1888    0.4724   -0.3678 C   0  0  0  0  0  0  0  0  0  0  0  0
   -3.3272    0.0722   -1.8573 C   0  0  0  0  0  0  0  0  0  0  0  0
   -4.4291   -0.0642    0.3721 C   0  0  0  0  0  0  0  0  0  0  0  0
   -3.1641    2.0122   -0.3066 C   0  0  0  0  0  0  0  0  0  0  0  0
    2.4428    2.3779   -2.0875 H   0  0  0  0  0  0  0  0  0  0  0  0
    3.5612    1.5799   -3.2216 H   0  0  0  0  0  0  0  0  0  0  0  0
    4.1831    2.5467   -1.8616 H   0  0  0  0  0  0  0  0  0  0  0  0
    5.5300    0.6853   -0.9235 H   0  0  0  0  0  0  0  0  0  0  0  0
    5.5453   -1.3940    0.4061 H   0  0  0  0  0  0  0  0  0  0  0  0
    3.4645   -2.6625    0.7693 H   0  0  0  0  0  0  0  0  0  0  0  0
    1.3023    0.2330   -1.5872 H   0  0  0  0  0  0  0  0  0  0  0  0
    0.6864   -2.5880   -1.0713 H   0  0  0  0  0  0  0  0  0  0  0  0
    1.1112   -2.8811    0.6177 H   0  0  0  0  0  0  0  0  0  0  0  0
    1.8928   -0.8035    4.0237 H   0  0  0  0  0  0  0  0  0  0  0  0
    2.2181   -1.0200    2.3743 H   0  0  0  0  0  0  0  0  0  0  0  0
   -1.8521    1.2580    4.4983 H   0  0  0  0  0  0  0  0  0  0  0  0
   -4.2406    0.4908   -2.2960 H   0  0  0  0  0  0  0  0  0  0  0  0
   -3.3765   -1.0165   -1.9780 H   0  0  0  0  0  0  0  0  0  0  0  0
   -2.4814    0.4381   -2.4514 H   0  0  0  0  0  0  0  0  0  0  0  0
   -4.4625    0.2651    1.4156 H   0  0  0  0  0  0  0  0  0  0  0  0
   -5.3536    0.2827   -0.1038 H   0  0  0  0  0  0  0  0  0  0  0  0
   -4.4435   -1.1604    0.3733 H   0  0  0  0  0  0  0  0  0  0  0  0
   -2.2646    2.4112   -0.7900 H   0  0  0  0  0  0  0  0  0  0  0  0
   -3.1767    2.3857    0.7223 H   0  0  0  0  0  0  0  0  0  0  0  0
   -4.0358    2.4416   -0.8139 H   0  0  0  0  0  0  0  0  0  0  0  0
  1  2  1  0
  2  3  2  0
  3  4  1  0
  4  5  2  0
  5  6  1  0
  6  7  2  0
  6  8  1  0
  8  9  1  0
  9 10  2  0
 10 11  1  0
 11 12  1  0
 12 13  2  0
 13 14  1  0
 14 15  1  0
 14 16  2  0
 16 17  1  0
 17 18  2  0
 11 19  1  0
 19 20  1  0
 19 21  1  0
 19 22  1  0
  7  2  1  0
 13  9  1  0
 18 12  1  0
  1 23  1  0
  1 24  1  0
  1 25  1  0
  3 26  1  0
  4 27  1  0
  5 28  1  0
  7 29  1  0
  8 30  1  0
  8 31  1  0
 15 32  1  0
 15 33  1  0
 17 34  1  0
 20 35  1  0
 20 36  1  0
 20 37  1  0
 21 38  1  0
 21 39  1  0
 21 40  1  0
 22 41  1  0
 22 42  1  0
 22 43  1  0
M  END
