
     RDKit          3D

 87 90  0  0  0  0  0  0  0  0999 V2000
   10.4487   -0.5839    0.8421 O   0  0  0  0  0  0  0  0  0  0  0  0
    9.4372    0.3843    1.1075 C   0  0  0  0  0  0  0  0  0  0  0  0
    8.2620    0.2278    0.1395 C   0  0  1  0  0  0  0  0  0  0  0  0
    7.3678    1.3186    0.3553 O   0  0  0  0  0  0  0  0  0  0  0  0
    6.1106    1.1580   -0.3144 C   0  0  2  0  0  0  0  0  0  0  0  0
    5.2373    0.4403    0.5612 O   0  0  0  0  0  0  0  0  0  0  0  0
    3.8603    0.6276    0.2550 C   0  0  0  0  0  0  0  0  0  0  0  0
    3.0161   -0.4139    1.0030 C   0  0  1  0  0  0  0  0  0  0  0  0
    1.6708   -0.2601    0.5374 O   0  0  0  0  0  0  0  0  0  0  0  0
    0.7875   -1.3483    0.8055 C   0  0  2  0  0  0  0  0  0  0  0  0
   -0.4689   -0.8274    1.2591 O   0  0  0  0  0  0  0  0  0  0  0  0
   -1.1814   -0.1268    0.2444 C   0  0  0  0  0  0  0  0  0  0  0  0
   -1.9371    1.0598    0.8618 C   0  0  1  0  0  0  0  0  0  0  0  0
   -2.9392    1.5304   -0.0606 O   0  0  0  0  0  0  0  0  0  0  0  0
   -4.2345    0.9663    0.1795 C   0  0  2  0  0  0  0  0  0  0  0  0
   -5.0636    1.2855   -0.9397 O   0  0  0  0  0  0  0  0  0  0  0  0
   -6.2552    0.4859   -1.0450 C   0  0  0  0  0  0  0  0  0  0  0  0
   -7.5078    1.2377   -0.5304 C   0  0  1  0  0  0  0  0  0  0  0  0
   -7.3544    2.6598   -0.6717 O   0  0  0  0  0  0  0  0  0  0  0  0
   -8.7923    0.8494   -1.2914 C   0  0  2  0  0  0  0  0  0  0  0  0
   -9.9411    1.1292   -0.4839 O   0  0  0  0  0  0  0  0  0  0  0  0
   -8.7493   -0.6187   -1.7194 C   0  0  0  0  0  0  0  0  0  0  0  0
   -7.6252   -0.8217   -2.7549 C   0  0  1  0  0  0  0  0  0  0  0  0
   -6.4260    0.1232   -2.5289 C   0  0  2  0  0  0  0  0  0  0  0  0
   -5.2331   -0.5091   -3.0272 O   0  0  0  0  0  0  0  0  0  0  0  0
   -7.1909   -2.1950   -2.6968 O   0  0  0  0  0  0  0  0  0  0  0  0
   -8.4781   -1.4568   -0.5792 O   0  0  0  0  0  0  0  0  0  0  0  0
   -4.8028    1.4856    1.5247 C   0  0  1  0  0  0  0  0  0  0  0  0
   -3.6711    1.7314    2.5373 C   0  0  2  0  0  0  0  0  0  0  0  0
   -2.4890    0.8002    2.2843 C   0  0  1  0  0  0  0  0  0  0  0  0
   -2.9598   -0.5485    2.4568 O   0  0  0  0  0  0  0  0  0  0  0  0
   -4.1904    1.5400    3.8628 O   0  0  0  0  0  0  0  0  0  0  0  0
   -5.5393    2.7177    1.3722 O   0  0  0  0  0  0  0  0  0  0  0  0
    1.2904   -2.3498    1.8691 C   0  0  1  0  0  0  0  0  0  0  0  0
    2.6538   -2.9046    1.4617 C   0  0  2  0  0  0  0  0  0  0  0  0
    3.5602   -1.8428    0.8086 C   0  0  1  0  0  0  0  0  0  0  0  0
    3.6932   -2.1684   -0.5906 O   0  0  0  0  0  0  0  0  0  0  0  0
    2.4827   -4.0245    0.5816 O   0  0  0  0  0  0  0  0  0  0  0  0
    1.4013   -1.7203    3.1604 O   0  0  0  0  0  0  0  0  0  0  0  0
    6.2239    0.4721   -1.7162 C   0  0  1  0  0  0  0  0  0  0  0  0
    7.6178    0.7059   -2.2930 C   0  0  2  0  0  0  0  0  0  0  0  0
    8.7030    0.1597   -1.3442 C   0  0  1  0  0  0  0  0  0  0  0  0
    9.9096    0.8898   -1.6211 O   0  0  0  0  0  0  0  0  0  0  0  0
    7.8134    2.1023   -2.5444 O   0  0  0  0  0  0  0  0  0  0  0  0
    5.9603   -0.9489   -1.6523 O   0  0  0  0  0  0  0  0  0  0  0  0
   10.3142   -1.3147    1.4726 H   0  0  0  0  0  0  0  0  0  0  0  0
    9.8823    1.3823    1.0190 H   0  0  0  0  0  0  0  0  0  0  0  0
    9.1002    0.2916    2.1461 H   0  0  0  0  0  0  0  0  0  0  0  0
    7.7392   -0.7053    0.3913 H   0  0  0  0  0  0  0  0  0  0  0  0
    5.7325    2.1796   -0.4444 H   0  0  0  0  0  0  0  0  0  0  0  0
    3.5545    1.6387    0.5526 H   0  0  0  0  0  0  0  0  0  0  0  0
    3.6765    0.5469   -0.8233 H   0  0  0  0  0  0  0  0  0  0  0  0
    3.0457   -0.1666    2.0711 H   0  0  0  0  0  0  0  0  0  0  0  0
    0.6256   -1.8878   -0.1369 H   0  0  0  0  0  0  0  0  0  0  0  0
   -0.5251    0.2446   -0.5521 H   0  0  0  0  0  0  0  0  0  0  0  0
   -1.8769   -0.8295   -0.2273 H   0  0  0  0  0  0  0  0  0  0  0  0
   -1.2269    1.8912    0.9523 H   0  0  0  0  0  0  0  0  0  0  0  0
   -4.1091   -0.1226    0.2111 H   0  0  0  0  0  0  0  0  0  0  0  0
   -6.1207   -0.4497   -0.4859 H   0  0  0  0  0  0  0  0  0  0  0  0
   -7.6324    1.0534    0.5426 H   0  0  0  0  0  0  0  0  0  0  0  0
   -6.5455    2.8823   -0.1558 H   0  0  0  0  0  0  0  0  0  0  0  0
   -8.9075    1.4779   -2.1844 H   0  0  0  0  0  0  0  0  0  0  0  0
   -9.8174    2.0411   -0.1574 H   0  0  0  0  0  0  0  0  0  0  0  0
   -9.7130   -0.9492   -2.1204 H   0  0  0  0  0  0  0  0  0  0  0  0
   -8.0096   -0.6532   -3.7678 H   0  0  0  0  0  0  0  0  0  0  0  0
   -6.5632    1.0423   -3.1120 H   0  0  0  0  0  0  0  0  0  0  0  0
   -4.5135    0.1221   -2.8106 H   0  0  0  0  0  0  0  0  0  0  0  0
   -6.2742   -2.1702   -3.0493 H   0  0  0  0  0  0  0  0  0  0  0  0
   -8.2117   -2.3158   -0.9707 H   0  0  0  0  0  0  0  0  0  0  0  0
   -5.5314    0.7600    1.9042 H   0  0  0  0  0  0  0  0  0  0  0  0
   -3.3387    2.7755    2.4869 H   0  0  0  0  0  0  0  0  0  0  0  0
   -1.7096    0.9496    3.0406 H   0  0  0  0  0  0  0  0  0  0  0  0
   -2.1586   -1.1078    2.3662 H   0  0  0  0  0  0  0  0  0  0  0  0
   -4.1579    0.5746    4.0216 H   0  0  0  0  0  0  0  0  0  0  0  0
   -5.7358    3.0213    2.2818 H   0  0  0  0  0  0  0  0  0  0  0  0
    0.5487   -3.1508    1.9753 H   0  0  0  0  0  0  0  0  0  0  0  0
    3.1565   -3.2848    2.3593 H   0  0  0  0  0  0  0  0  0  0  0  0
    4.5602   -1.9329    1.2476 H   0  0  0  0  0  0  0  0  0  0  0  0
    4.5181   -1.7184   -0.8849 H   0  0  0  0  0  0  0  0  0  0  0  0
    2.9116   -3.7537   -0.2597 H   0  0  0  0  0  0  0  0  0  0  0  0
    1.3729   -2.4317    3.8243 H   0  0  0  0  0  0  0  0  0  0  0  0
    5.4540    0.9004   -2.3699 H   0  0  0  0  0  0  0  0  0  0  0  0
    7.7212    0.1993   -3.2603 H   0  0  0  0  0  0  0  0  0  0  0  0
    8.9041   -0.8902   -1.5874 H   0  0  0  0  0  0  0  0  0  0  0  0
   10.6062    0.4845   -1.0620 H   0  0  0  0  0  0  0  0  0  0  0  0
    8.7814    2.2337   -2.4379 H   0  0  0  0  0  0  0  0  0  0  0  0
    5.9957   -1.2770   -2.5740 H   0  0  0  0  0  0  0  0  0  0  0  0
  1  2  1  0
  2  3  1  0
  3  4  1  0
  4  5  1  0
  5  6  1  0
  6  7  1  0
  7  8  1  0
  8  9  1  0
  9 10  1  0
 10 11  1  0
 11 12  1  0
 12 13  1  0
 13 14  1  0
 14 15  1  0
 15 16  1  0
 16 17  1  0
 17 18  1  0
 18 19  1  0
 18 20  1  0
 20 21  1  0
 20 22  1  0
 22 23  1  0
 23 24  1  0
 24 25  1  0
 23 26  1  0
 22 27  1  0
 15 28  1  0
 28 29  1  0
 29 30  1  0
 30 31  1  0
 29 32  1  0
 28 33  1  0
 10 34  1  0
 34 35  1  0
 35 36  1  0
 36 37  1  0
 35 38  1  0
 34 39  1  0
  5 40  1  0
 40 41  1  0
 41 42  1  0
 42 43  1  0
 41 44  1  0
 40 45  1  0
 42  3  1  0
 36  8  1  0
 30 13  1  0
 24 17  1  0
  1 46  1  0
  2 47  1  0
  2 48  1  0
  3 49  1  1
  5 50  1  6
  7 51  1  0
  7 52  1  0
  8 53  1  1
 10 54  1  6
 12 55  1  0
 12 56  1  0
 13 57  1  1
 15 58  1  1
 17 59  1  0
 18 60  1  1
 19 61  1  0
 20 62  1  6
 21 63  1  0
 22 64  1  0
 23 65  1  6
 24 66  1  6
 25 67  1  0
 26 68  1  0
 27 69  1  0
 28 70  1  1
 29 71  1  1
 30 72  1  1
 31 73  1  0
 32 74  1  0
 33 75  1  0
 34 76  1  1
 35 77  1  1
 36 78  1  1
 37 79  1  0
 38 80  1  0
 39 81  1  0
 40 82  1  6
 41 83  1  6
 42 84  1  6
 43 85  1  0
 44 86  1  0
 45 87  1  0
M  END
