
     RDKit          3D

 69 71  0  0  0  0  0  0  0  0999 V2000
    8.2980    0.0271    0.8837 C   0  0  0  0  0  0  0  0  0  0  0  0
    7.4261   -0.9584    0.1234 C   0  0  0  0  0  0  0  0  0  0  0  0
    6.3439   -1.6087    0.9876 C   0  0  0  0  0  0  0  0  0  0  0  0
    5.3300   -0.6502    1.6178 C   0  0  0  0  0  0  0  0  0  0  0  0
    4.5480    0.1703    0.5892 C   0  0  0  0  0  0  0  0  0  0  0  0
    3.4407    0.9877    1.2629 C   0  0  0  0  0  0  0  0  0  0  0  0
    2.6784    1.8965    0.2903 C   0  0  0  0  0  0  0  0  0  0  0  0
    1.9511    1.1835   -0.8556 C   0  0  0  0  0  0  0  0  0  0  0  0
    0.8408    0.2915   -0.3913 C   0  0  0  0  0  0  0  0  0  0  0  0
    1.0598   -1.0407   -0.1890 N   0  0  0  0  0  0  0  0  0  0  0  0
   -0.0699   -1.6607    0.2794 C   0  0  0  0  0  0  0  0  0  0  0  0
   -1.0994   -0.7102    0.3188 C   0  0  0  0  0  0  0  0  0  0  0  0
   -0.4936    0.5490   -0.0923 C   0  0  0  0  0  0  0  0  0  0  0  0
   -1.1034    1.9249   -0.1223 C   0  0  0  0  0  0  0  0  0  0  0  0
   -2.0323    2.2669   -1.3086 C   0  0  1  0  0  0  0  0  0  0  0  0
   -1.3679    2.1632   -2.6877 C   0  0  0  0  0  0  0  0  0  0  0  0
   -0.3752    3.1785   -2.8333 O   0  0  0  0  0  0  0  0  0  0  0  0
   -3.3018    1.5731   -1.1606 N   0  0  0  0  0  0  0  0  0  0  0  0
   -3.5106    0.3038   -1.6797 C   0  0  0  0  0  0  0  0  0  0  0  0
   -3.1611   -0.0680   -2.7935 O   0  0  0  0  0  0  0  0  0  0  0  0
   -4.2597   -0.5944   -0.6557 C   0  0  1  0  0  0  0  0  0  0  0  0
   -3.5929   -0.3289    0.6811 N   0  0  0  0  0  0  0  0  0  0  0  0
   -2.4022   -1.1518    0.7284 C   0  0  0  0  0  0  0  0  0  0  0  0
   -2.5338   -2.5232    1.0968 C   0  0  0  0  0  0  0  0  0  0  0  0
   -1.4727   -3.4193    1.0713 C   0  0  0  0  0  0  0  0  0  0  0  0
   -0.2203   -3.0012    0.6501 C   0  0  0  0  0  0  0  0  0  0  0  0
   -4.3407   -0.4237    1.9313 C   0  0  0  0  0  0  0  0  0  0  0  0
   -5.7883   -0.3556   -0.7985 C   0  0  0  0  0  0  0  0  0  0  0  0
   -6.6326   -1.3914   -0.0504 C   0  0  0  0  0  0  0  0  0  0  0  0
   -6.3072    1.0569   -0.5237 C   0  0  0  0  0  0  0  0  0  0  0  0
    8.7457   -0.4452    1.7658 H   0  0  0  0  0  0  0  0  0  0  0  0
    9.1106    0.3813    0.2393 H   0  0  0  0  0  0  0  0  0  0  0  0
    7.7263    0.9015    1.2112 H   0  0  0  0  0  0  0  0  0  0  0  0
    8.0692   -1.7504   -0.2761 H   0  0  0  0  0  0  0  0  0  0  0  0
    6.9778   -0.4597   -0.7418 H   0  0  0  0  0  0  0  0  0  0  0  0
    6.8271   -2.1785    1.7912 H   0  0  0  0  0  0  0  0  0  0  0  0
    5.8041   -2.3403    0.3737 H   0  0  0  0  0  0  0  0  0  0  0  0
    4.6254   -1.2484    2.2093 H   0  0  0  0  0  0  0  0  0  0  0  0
    5.8324    0.0198    2.3235 H   0  0  0  0  0  0  0  0  0  0  0  0
    4.1192   -0.5085   -0.1555 H   0  0  0  0  0  0  0  0  0  0  0  0
    5.2244    0.8497    0.0585 H   0  0  0  0  0  0  0  0  0  0  0  0
    2.7421    0.3188    1.7778 H   0  0  0  0  0  0  0  0  0  0  0  0
    3.8855    1.6192    2.0426 H   0  0  0  0  0  0  0  0  0  0  0  0
    3.3864    2.6105   -0.1505 H   0  0  0  0  0  0  0  0  0  0  0  0
    1.9604    2.4910    0.8693 H   0  0  0  0  0  0  0  0  0  0  0  0
    2.6633    0.6161   -1.4666 H   0  0  0  0  0  0  0  0  0  0  0  0
    1.5396    1.9449   -1.5277 H   0  0  0  0  0  0  0  0  0  0  0  0
    1.9426   -1.5103   -0.3297 H   0  0  0  0  0  0  0  0  0  0  0  0
   -1.6517    2.0654    0.8198 H   0  0  0  0  0  0  0  0  0  0  0  0
   -0.3020    2.6732   -0.0929 H   0  0  0  0  0  0  0  0  0  0  0  0
   -2.2984    3.3230   -1.1670 H   0  0  0  0  0  0  0  0  0  0  0  0
   -2.1087    2.3211   -3.4797 H   0  0  0  0  0  0  0  0  0  0  0  0
   -0.8957    1.1904   -2.8448 H   0  0  0  0  0  0  0  0  0  0  0  0
    0.0082    3.0541   -3.7181 H   0  0  0  0  0  0  0  0  0  0  0  0
   -3.6124    1.5882   -0.1918 H   0  0  0  0  0  0  0  0  0  0  0  0
   -4.0719   -1.6328   -0.9648 H   0  0  0  0  0  0  0  0  0  0  0  0
   -3.5039   -2.9234    1.3773 H   0  0  0  0  0  0  0  0  0  0  0  0
   -1.6350   -4.4554    1.3594 H   0  0  0  0  0  0  0  0  0  0  0  0
    0.6117   -3.6965    0.6054 H   0  0  0  0  0  0  0  0  0  0  0  0
   -5.1007    0.3541    1.9900 H   0  0  0  0  0  0  0  0  0  0  0  0
   -3.6772   -0.2506    2.7875 H   0  0  0  0  0  0  0  0  0  0  0  0
   -4.8317   -1.3897    2.0739 H   0  0  0  0  0  0  0  0  0  0  0  0
   -6.0049   -0.5358   -1.8622 H   0  0  0  0  0  0  0  0  0  0  0  0
   -6.1923   -2.3903   -0.1197 H   0  0  0  0  0  0  0  0  0  0  0  0
   -7.6397   -1.4405   -0.4858 H   0  0  0  0  0  0  0  0  0  0  0  0
   -6.7622   -1.1358    1.0040 H   0  0  0  0  0  0  0  0  0  0  0  0
   -5.8828    1.7818   -1.2267 H   0  0  0  0  0  0  0  0  0  0  0  0
   -7.3969    1.0993   -0.6533 H   0  0  0  0  0  0  0  0  0  0  0  0
   -6.0851    1.4027    0.4879 H   0  0  0  0  0  0  0  0  0  0  0  0
  1  2  1  0
  2  3  1  0
  3  4  1  0
  4  5  1  0
  5  6  1  0
  6  7  1  0
  7  8  1  0
  8  9  1  0
  9 10  1  0
 10 11  1  0
 11 12  2  0
 12 13  1  0
 13 14  1  0
 14 15  1  0
 15 16  1  0
 16 17  1  0
 15 18  1  0
 18 19  1  0
 19 20  2  0
 19 21  1  0
 21 22  1  0
 22 23  1  0
 23 24  2  0
 24 25  1  0
 25 26  2  0
 22 27  1  0
 21 28  1  0
 28 29  1  0
 28 30  1  0
 13  9  2  0
 26 11  1  0
 23 12  1  0
  1 31  1  0
  1 32  1  0
  1 33  1  0
  2 34  1  0
  2 35  1  0
  3 36  1  0
  3 37  1  0
  4 38  1  0
  4 39  1  0
  5 40  1  0
  5 41  1  0
  6 42  1  0
  6 43  1  0
  7 44  1  0
  7 45  1  0
  8 46  1  0
  8 47  1  0
 10 48  1  0
 14 49  1  0
 14 50  1  0
 15 51  1  1
 16 52  1  0
 16 53  1  0
 17 54  1  0
 18 55  1  0
 21 56  1  6
 24 57  1  0
 25 58  1  0
 26 59  1  0
 27 60  1  0
 27 61  1  0
 27 62  1  0
 28 63  1  0
 29 64  1  0
 29 65  1  0
 29 66  1  0
 30 67  1  0
 30 68  1  0
 30 69  1  0
M  END
