
     RDKit          3D

 24 25  0  0  0  0  0  0  0  0999 V2000
    4.7535   -0.9104   -0.1673 O   0  0  0  0  0  0  0  0  0  0  0  0
    3.9638    0.0116    0.4086 C   0  0  0  0  0  0  0  0  0  0  0  0
    4.4261    0.9171    1.0773 O   0  0  0  0  0  0  0  0  0  0  0  0
    2.5237   -0.2098    0.1331 C   0  0  0  0  0  0  0  0  0  0  0  0
    2.0737   -1.2769   -0.6555 C   0  0  0  0  0  0  0  0  0  0  0  0
    0.7066   -1.4504   -0.8814 C   0  0  0  0  0  0  0  0  0  0  0  0
   -0.2095   -0.5512   -0.3234 C   0  0  0  0  0  0  0  0  0  0  0  0
    0.2316    0.5307    0.4581 C   0  0  0  0  0  0  0  0  0  0  0  0
    1.6005    0.6870    0.6926 C   0  0  0  0  0  0  0  0  0  0  0  0
   -0.7027    1.3949    1.0424 N   0  0  0  0  0  0  0  0  0  0  0  0
   -2.0386    1.2732    0.7565 C   0  0  0  0  0  0  0  0  0  0  0  0
   -2.5867    0.3017    0.0066 C   0  0  0  0  0  0  0  0  0  0  0  0
   -1.6716   -0.7358   -0.5449 C   0  0  0  0  0  0  0  0  0  0  0  0
   -2.0703   -1.7305   -1.1410 O   0  0  0  0  0  0  0  0  0  0  0  0
   -4.0387    0.3480   -0.2068 C   0  0  0  0  0  0  0  0  0  0  0  0
   -4.8429    0.9238    0.5089 O   0  0  0  0  0  0  0  0  0  0  0  0
   -4.4380   -0.2599   -1.3326 O   0  0  0  0  0  0  0  0  0  0  0  0
    5.6607   -0.6466    0.0947 H   0  0  0  0  0  0  0  0  0  0  0  0
    2.7770   -1.9818   -1.0937 H   0  0  0  0  0  0  0  0  0  0  0  0
    0.3581   -2.2851   -1.4868 H   0  0  0  0  0  0  0  0  0  0  0  0
    1.9574    1.5064    1.3133 H   0  0  0  0  0  0  0  0  0  0  0  0
   -0.3774    2.2479    1.4861 H   0  0  0  0  0  0  0  0  0  0  0  0
   -2.6442    2.0638    1.1963 H   0  0  0  0  0  0  0  0  0  0  0  0
   -5.4119   -0.1677   -1.3410 H   0  0  0  0  0  0  0  0  0  0  0  0
  1  2  1  0
  2  3  2  0
  2  4  1  0
  4  5  2  0
  5  6  1  0
  6  7  2  0
  7  8  1  0
  8  9  2  0
  8 10  1  0
 10 11  1  0
 11 12  2  0
 12 13  1  0
 13 14  2  0
 12 15  1  0
 15 16  2  0
 15 17  1  0
  9  4  1  0
 13  7  1  0
  1 18  1  0
  5 19  1  0
  6 20  1  0
  9 21  1  0
 10 22  1  0
 11 23  1  0
 17 24  1  0
M  END
