
     RDKit          3D

196196  0  0  0  0  0  0  0  0999 V2000
    8.6258   -4.4055   -1.0407 C   0  0  0  0  0  0  0  0  0  0  0  0
    7.9961   -4.5695    0.3078 C   0  0  0  0  0  0  0  0  0  0  0  0
    7.0899   -5.5166    0.5945 C   0  0  0  0  0  0  0  0  0  0  0  0
    6.4905   -5.7228    1.9543 C   0  0  0  0  0  0  0  0  0  0  0  0
    4.9496   -5.7514    2.0372 C   0  0  0  0  0  0  0  0  0  0  0  0
    4.2806   -4.3559    1.8784 C   0  0  0  0  0  0  0  0  0  0  0  0
    4.2447   -3.7491    0.4319 C   0  0  0  0  0  0  0  0  0  0  0  0
    2.7968   -3.6817   -0.1735 C   0  0  0  0  0  0  0  0  0  0  0  0
    2.3340   -2.6861   -0.7343 O   0  0  0  0  0  0  0  0  0  0  0  0
    2.0785   -4.8672   -0.1053 N   0  0  0  0  0  0  0  0  0  0  0  0
    0.8185   -4.9459   -0.8431 C   0  0  0  0  0  0  0  0  0  0  0  0
    0.4393   -6.3963   -1.1704 C   0  0  0  0  0  0  0  0  0  0  0  0
    0.0717   -7.2608    0.0307 C   0  0  0  0  0  0  0  0  0  0  0  0
   -0.3010   -4.2395   -0.0442 C   0  0  0  0  0  0  0  0  0  0  0  0
   -0.3719   -4.3732    1.1849 O   0  0  0  0  0  0  0  0  0  0  0  0
   -1.2340   -3.4932   -0.7477 N   0  0  0  0  0  0  0  0  0  0  0  0
   -1.1347   -3.2053   -2.1730 C   0  0  0  0  0  0  0  0  0  0  0  0
   -2.2933   -2.8241    0.0004 C   0  0  0  0  0  0  0  0  0  0  0  0
   -3.6365   -3.5565   -0.1673 C   0  0  0  0  0  0  0  0  0  0  0  0
   -4.0739   -3.7726   -1.3074 O   0  0  0  0  0  0  0  0  0  0  0  0
   -4.3931   -3.8724    0.9578 N   0  0  0  0  0  0  0  0  0  0  0  0
   -3.8871   -3.7289    2.3175 C   0  0  0  0  0  0  0  0  0  0  0  0
   -5.8291   -4.2649    0.8127 C   0  0  0  0  0  0  0  0  0  0  0  0
   -6.0361   -5.4737   -0.1292 C   0  0  0  0  0  0  0  0  0  0  0  0
   -7.1314   -6.4615    0.3284 C   0  0  0  0  0  0  0  0  0  0  0  0
   -8.5096   -5.8170    0.4677 C   0  0  0  0  0  0  0  0  0  0  0  0
   -7.2111   -7.6292   -0.6604 C   0  0  0  0  0  0  0  0  0  0  0  0
   -6.6762   -3.0144    0.4259 C   0  0  0  0  0  0  0  0  0  0  0  0
   -7.5063   -2.5352    1.1927 O   0  0  0  0  0  0  0  0  0  0  0  0
   -6.3675   -2.4676   -0.7936 N   0  0  0  0  0  0  0  0  0  0  0  0
   -7.0578   -1.3841   -1.4872 C   0  0  0  0  0  0  0  0  0  0  0  0
   -8.4213   -1.8235   -2.1050 C   0  0  0  0  0  0  0  0  0  0  0  0
   -8.2825   -3.0734   -2.9808 C   0  0  0  0  0  0  0  0  0  0  0  0
   -9.5289   -2.0308   -1.0677 C   0  0  0  0  0  0  0  0  0  0  0  0
   -7.1217    0.0814   -0.9131 C   0  0  0  0  0  0  0  0  0  0  0  0
   -7.9361    0.8666   -1.4203 O   0  0  0  0  0  0  0  0  0  0  0  0
   -6.2065    0.5323    0.0337 N   0  0  0  0  0  0  0  0  0  0  0  0
   -5.0250   -0.2276    0.4123 C   0  0  0  0  0  0  0  0  0  0  0  0
   -6.1625    1.9613    0.4218 C   0  0  0  0  0  0  0  0  0  0  0  0
   -7.5031    2.7010    0.6196 C   0  0  0  0  0  0  0  0  0  0  0  0
   -8.5324    1.9825    1.5149 C   0  0  0  0  0  0  0  0  0  0  0  0
   -9.8381    2.7836    1.5394 C   0  0  0  0  0  0  0  0  0  0  0  0
   -8.0214    1.7809    2.9402 C   0  0  0  0  0  0  0  0  0  0  0  0
   -5.2034    2.7217   -0.5411 C   0  0  0  0  0  0  0  0  0  0  0  0
   -4.6964    2.2148   -1.5423 O   0  0  0  0  0  0  0  0  0  0  0  0
   -4.8659    3.9896   -0.1199 N   0  0  0  0  0  0  0  0  0  0  0  0
   -3.7173    4.6968   -0.6732 C   0  0  0  0  0  0  0  0  0  0  0  0
   -2.8514    5.1424    0.5181 C   0  0  0  0  0  0  0  0  0  0  0  0
   -3.3104    5.2606    1.6551 O   0  0  0  0  0  0  0  0  0  0  0  0
   -1.5513    5.4490    0.2043 N   0  0  0  0  0  0  0  0  0  0  0  0
   -0.6039    5.9359    1.2051 C   0  0  0  0  0  0  0  0  0  0  0  0
    0.8301    5.6701    0.6937 C   0  0  0  0  0  0  0  0  0  0  0  0
    1.0075    5.3349   -0.4844 O   0  0  0  0  0  0  0  0  0  0  0  0
    1.8973    5.8535    1.5607 N   0  0  0  0  0  0  0  0  0  0  0  0
    3.2636    5.7713    1.0178 C   0  0  0  0  0  0  0  0  0  0  0  0
    3.6218    4.3423    0.4609 C   0  0  0  0  0  0  0  0  0  0  0  0
    3.1990    3.3329    1.0396 O   0  0  0  0  0  0  0  0  0  0  0  0
    4.6122    4.2691   -0.5183 N   0  0  0  0  0  0  0  0  0  0  0  0
    5.5750    3.1334   -0.5072 C   0  0  0  0  0  0  0  0  0  0  0  0
    5.2241    1.8924   -1.3974 C   0  0  0  0  0  0  0  0  0  0  0  0
    5.0697    2.0105   -2.6215 O   0  0  0  0  0  0  0  0  0  0  0  0
    5.0310    0.6561   -0.7616 N   0  0  0  0  0  0  0  0  0  0  0  0
    5.5369   -0.5465   -1.4970 C   0  0  0  0  0  0  0  0  0  0  0  0
    5.1150   -2.0062   -1.0783 C   0  0  0  0  0  0  0  0  0  0  0  0
    5.0918   -2.8671   -1.9756 O   0  0  0  0  0  0  0  0  0  0  0  0
    4.8788   -2.3906    0.2438 N   0  0  0  0  0  0  0  0  0  0  0  0
    5.2433   -1.6042    1.4106 C   0  0  0  0  0  0  0  0  0  0  0  0
    7.0950   -0.5956   -1.7328 C   0  0  0  0  0  0  0  0  0  0  0  0
    7.6372    0.4720   -2.6845 C   0  0  0  0  0  0  0  0  0  0  0  0
    7.9313   -0.6197   -0.4559 C   0  0  0  0  0  0  0  0  0  0  0  0
    3.6403    0.5633   -0.3049 C   0  0  0  0  0  0  0  0  0  0  0  0
    6.1816    2.8059    0.8869 C   0  0  0  0  0  0  0  0  0  0  0  0
    7.3918    3.6617    1.3336 C   0  0  0  0  0  0  0  0  0  0  0  0
    8.6394    3.4129    0.4812 C   0  0  0  0  0  0  0  0  0  0  0  0
    7.0834    5.1551    1.4083 C   0  0  0  0  0  0  0  0  0  0  0  0
    4.1944    4.7049   -1.8436 C   0  0  0  0  0  0  0  0  0  0  0  0
    3.8274    7.0892    0.4129 C   0  0  0  0  0  0  0  0  0  0  0  0
    2.8607    8.1699   -0.1348 C   0  0  0  0  0  0  0  0  0  0  0  0
    2.5146    7.9911   -1.6132 C   0  0  0  0  0  0  0  0  0  0  0  0
    3.4970    9.5601    0.0329 C   0  0  0  0  0  0  0  0  0  0  0  0
    1.7735    6.0526    3.0022 C   0  0  0  0  0  0  0  0  0  0  0  0
   -0.8259    7.4287    1.4288 C   0  0  0  0  0  0  0  0  0  0  0  0
   -4.1560    5.9044   -1.4896 C   0  0  0  0  0  0  0  0  0  0  0  0
    2.9571   -4.4566    2.4281 O   0  0  0  0  0  0  0  0  0  0  0  0
    4.3355   -6.8507    1.1643 C   0  0  0  0  0  0  0  0  0  0  0  0
    9.7055   -4.5510   -0.9619 H   0  0  0  0  0  0  0  0  0  0  0  0
    8.4435   -3.3982   -1.4182 H   0  0  0  0  0  0  0  0  0  0  0  0
    8.2325   -5.1179   -1.7703 H   0  0  0  0  0  0  0  0  0  0  0  0
    8.3240   -3.8724    1.0768 H   0  0  0  0  0  0  0  0  0  0  0  0
    6.7955   -6.2167   -0.1862 H   0  0  0  0  0  0  0  0  0  0  0  0
    6.8680   -4.9647    2.6531 H   0  0  0  0  0  0  0  0  0  0  0  0
    6.8700   -6.6843    2.3230 H   0  0  0  0  0  0  0  0  0  0  0  0
    4.7283   -6.0674    3.0688 H   0  0  0  0  0  0  0  0  0  0  0  0
    4.8166   -3.6951    2.5622 H   0  0  0  0  0  0  0  0  0  0  0  0
    4.7981   -4.4139   -0.2388 H   0  0  0  0  0  0  0  0  0  0  0  0
    2.0176   -5.1745    0.8612 H   0  0  0  0  0  0  0  0  0  0  0  0
    0.9943   -4.4331   -1.7915 H   0  0  0  0  0  0  0  0  0  0  0  0
   -0.4127   -6.4028   -1.8620 H   0  0  0  0  0  0  0  0  0  0  0  0
    1.2777   -6.8726   -1.6943 H   0  0  0  0  0  0  0  0  0  0  0  0
   -0.0498   -8.3018   -0.2849 H   0  0  0  0  0  0  0  0  0  0  0  0
    0.8451   -7.2356    0.8084 H   0  0  0  0  0  0  0  0  0  0  0  0
   -0.8788   -6.9412    0.4768 H   0  0  0  0  0  0  0  0  0  0  0  0
   -2.0128   -2.6646   -2.5284 H   0  0  0  0  0  0  0  0  0  0  0  0
   -1.0354   -4.1356   -2.7374 H   0  0  0  0  0  0  0  0  0  0  0  0
   -0.2488   -2.5840   -2.3328 H   0  0  0  0  0  0  0  0  0  0  0  0
   -2.0052   -2.6906    1.0440 H   0  0  0  0  0  0  0  0  0  0  0  0
   -2.4094   -1.8108   -0.3977 H   0  0  0  0  0  0  0  0  0  0  0  0
   -2.8363   -4.0192    2.3718 H   0  0  0  0  0  0  0  0  0  0  0  0
   -4.4373   -4.3769    3.0029 H   0  0  0  0  0  0  0  0  0  0  0  0
   -4.0004   -2.6845    2.6225 H   0  0  0  0  0  0  0  0  0  0  0  0
   -6.1672   -4.5599    1.8148 H   0  0  0  0  0  0  0  0  0  0  0  0
   -5.0969   -6.0369   -0.1926 H   0  0  0  0  0  0  0  0  0  0  0  0
   -6.2705   -5.1383   -1.1463 H   0  0  0  0  0  0  0  0  0  0  0  0
   -6.8427   -6.8661    1.3093 H   0  0  0  0  0  0  0  0  0  0  0  0
   -9.2626   -6.5699    0.7248 H   0  0  0  0  0  0  0  0  0  0  0  0
   -8.5232   -5.0672    1.2622 H   0  0  0  0  0  0  0  0  0  0  0  0
   -8.8181   -5.3388   -0.4690 H   0  0  0  0  0  0  0  0  0  0  0  0
   -7.5505   -7.2855   -1.6430 H   0  0  0  0  0  0  0  0  0  0  0  0
   -6.2370   -8.1104   -0.7878 H   0  0  0  0  0  0  0  0  0  0  0  0
   -7.9212   -8.3876   -0.3074 H   0  0  0  0  0  0  0  0  0  0  0  0
   -5.6922   -2.9912   -1.3576 H   0  0  0  0  0  0  0  0  0  0  0  0
   -6.3974   -1.2281   -2.3562 H   0  0  0  0  0  0  0  0  0  0  0  0
   -8.7642   -1.0195   -2.7696 H   0  0  0  0  0  0  0  0  0  0  0  0
   -8.0178   -3.9550   -2.3905 H   0  0  0  0  0  0  0  0  0  0  0  0
   -7.5132   -2.9298   -3.7469 H   0  0  0  0  0  0  0  0  0  0  0  0
   -9.2255   -3.2885   -3.4936 H   0  0  0  0  0  0  0  0  0  0  0  0
   -9.6198   -1.1694   -0.3984 H   0  0  0  0  0  0  0  0  0  0  0  0
   -9.3556   -2.9211   -0.4612 H   0  0  0  0  0  0  0  0  0  0  0  0
  -10.4940   -2.1634   -1.5662 H   0  0  0  0  0  0  0  0  0  0  0  0
   -5.2854   -0.8978    1.2326 H   0  0  0  0  0  0  0  0  0  0  0  0
   -4.2256    0.4322    0.7705 H   0  0  0  0  0  0  0  0  0  0  0  0
   -4.6251   -0.7681   -0.4459 H   0  0  0  0  0  0  0  0  0  0  0  0
   -5.6627    1.9825    1.4016 H   0  0  0  0  0  0  0  0  0  0  0  0
   -7.9501    2.9342   -0.3536 H   0  0  0  0  0  0  0  0  0  0  0  0
   -7.2923    3.6847    1.0607 H   0  0  0  0  0  0  0  0  0  0  0  0
   -8.7635    0.9986    1.0958 H   0  0  0  0  0  0  0  0  0  0  0  0
  -10.1972    2.9671    0.5197 H   0  0  0  0  0  0  0  0  0  0  0  0
  -10.6205    2.2320    2.0738 H   0  0  0  0  0  0  0  0  0  0  0  0
   -9.7037    3.7501    2.0333 H   0  0  0  0  0  0  0  0  0  0  0  0
   -7.6986    2.7279    3.3839 H   0  0  0  0  0  0  0  0  0  0  0  0
   -7.1738    1.0860    2.9686 H   0  0  0  0  0  0  0  0  0  0  0  0
   -8.8042    1.3610    3.5801 H   0  0  0  0  0  0  0  0  0  0  0  0
   -5.1624    4.2992    0.8022 H   0  0  0  0  0  0  0  0  0  0  0  0
   -3.1220    4.0171   -1.2945 H   0  0  0  0  0  0  0  0  0  0  0  0
   -1.1614    5.1950   -0.7003 H   0  0  0  0  0  0  0  0  0  0  0  0
   -0.7801    5.3646    2.1209 H   0  0  0  0  0  0  0  0  0  0  0  0
    3.8842    5.6992    1.9306 H   0  0  0  0  0  0  0  0  0  0  0  0
    6.4188    3.5428   -1.0831 H   0  0  0  0  0  0  0  0  0  0  0  0
    5.0796   -0.4505   -2.4945 H   0  0  0  0  0  0  0  0  0  0  0  0
    5.6708   -0.6381    1.1591 H   0  0  0  0  0  0  0  0  0  0  0  0
    6.0220   -2.1456    1.9604 H   0  0  0  0  0  0  0  0  0  0  0  0
    4.3593   -1.4627    2.0407 H   0  0  0  0  0  0  0  0  0  0  0  0
    7.2981   -1.5461   -2.2451 H   0  0  0  0  0  0  0  0  0  0  0  0
    7.0320    0.5364   -3.5949 H   0  0  0  0  0  0  0  0  0  0  0  0
    8.6583    0.2161   -2.9956 H   0  0  0  0  0  0  0  0  0  0  0  0
    7.6882    1.4581   -2.2151 H   0  0  0  0  0  0  0  0  0  0  0  0
    7.7763    0.2723    0.1500 H   0  0  0  0  0  0  0  0  0  0  0  0
    7.7005   -1.4982    0.1556 H   0  0  0  0  0  0  0  0  0  0  0  0
    8.9999   -0.6740   -0.6946 H   0  0  0  0  0  0  0  0  0  0  0  0
    3.0664    1.4566   -0.5678 H   0  0  0  0  0  0  0  0  0  0  0  0
    3.6337    0.4496    0.7811 H   0  0  0  0  0  0  0  0  0  0  0  0
    3.1351   -0.2766   -0.7826 H   0  0  0  0  0  0  0  0  0  0  0  0
    6.5110    1.7659    0.9149 H   0  0  0  0  0  0  0  0  0  0  0  0
    5.4219    2.8709    1.6722 H   0  0  0  0  0  0  0  0  0  0  0  0
    7.6373    3.3341    2.3519 H   0  0  0  0  0  0  0  0  0  0  0  0
    8.5208    3.7741   -0.5455 H   0  0  0  0  0  0  0  0  0  0  0  0
    9.5041    3.9282    0.9140 H   0  0  0  0  0  0  0  0  0  0  0  0
    8.8796    2.3467    0.4428 H   0  0  0  0  0  0  0  0  0  0  0  0
    7.9363    5.7014    1.8260 H   0  0  0  0  0  0  0  0  0  0  0  0
    6.2254    5.3402    2.0585 H   0  0  0  0  0  0  0  0  0  0  0  0
    6.8721    5.5802    0.4203 H   0  0  0  0  0  0  0  0  0  0  0  0
    3.5773    3.9288   -2.3078 H   0  0  0  0  0  0  0  0  0  0  0  0
    3.5674    5.5860   -1.7820 H   0  0  0  0  0  0  0  0  0  0  0  0
    5.0724    4.9233   -2.4560 H   0  0  0  0  0  0  0  0  0  0  0  0
    4.6259    6.8955   -0.3114 H   0  0  0  0  0  0  0  0  0  0  0  0
    4.3553    7.5699    1.2519 H   0  0  0  0  0  0  0  0  0  0  0  0
    1.9353    8.1846    0.4488 H   0  0  0  0  0  0  0  0  0  0  0  0
    3.4170    7.9826   -2.2337 H   0  0  0  0  0  0  0  0  0  0  0  0
    1.9658    7.0664   -1.7974 H   0  0  0  0  0  0  0  0  0  0  0  0
    1.8771    8.8118   -1.9627 H   0  0  0  0  0  0  0  0  0  0  0  0
    2.8317   10.3444   -0.3423 H   0  0  0  0  0  0  0  0  0  0  0  0
    3.6958    9.7751    1.0880 H   0  0  0  0  0  0  0  0  0  0  0  0
    4.4442    9.6307   -0.5135 H   0  0  0  0  0  0  0  0  0  0  0  0
    0.7479    5.9781    3.3555 H   0  0  0  0  0  0  0  0  0  0  0  0
    2.1742    7.0429    3.2490 H   0  0  0  0  0  0  0  0  0  0  0  0
    2.3629    5.2895    3.5174 H   0  0  0  0  0  0  0  0  0  0  0  0
   -0.0606    7.8804    2.0677 H   0  0  0  0  0  0  0  0  0  0  0  0
   -0.8127    7.9695    0.4747 H   0  0  0  0  0  0  0  0  0  0  0  0
   -1.7992    7.6148    1.8945 H   0  0  0  0  0  0  0  0  0  0  0  0
   -3.2993    6.5048   -1.8095 H   0  0  0  0  0  0  0  0  0  0  0  0
   -4.7055    5.5900   -2.3828 H   0  0  0  0  0  0  0  0  0  0  0  0
   -4.8191    6.5540   -0.9072 H   0  0  0  0  0  0  0  0  0  0  0  0
    3.0363   -4.5210    3.4023 H   0  0  0  0  0  0  0  0  0  0  0  0
    4.8316   -7.8111    1.3491 H   0  0  0  0  0  0  0  0  0  0  0  0
    3.2767   -6.9909    1.4029 H   0  0  0  0  0  0  0  0  0  0  0  0
    4.4174   -6.6362    0.0960 H   0  0  0  0  0  0  0  0  0  0  0  0
  1  2  1  0
  2  3  2  0
  3  4  1  0
  4  5  1  0
  5  6  1  0
  6  7  1  0
  7  8  1  0
  8  9  2  0
  8 10  1  0
 10 11  1  0
 11 12  1  0
 12 13  1  0
 11 14  1  0
 14 15  2  0
 14 16  1  0
 16 17  1  0
 16 18  1  0
 18 19  1  0
 19 20  2  0
 19 21  1  0
 21 22  1  0
 21 23  1  0
 23 24  1  0
 24 25  1  0
 25 26  1  0
 25 27  1  0
 23 28  1  0
 28 29  2  0
 28 30  1  0
 30 31  1  0
 31 32  1  0
 32 33  1  0
 32 34  1  0
 31 35  1  0
 35 36  2  0
 35 37  1  0
 37 38  1  0
 37 39  1  0
 39 40  1  0
 40 41  1  0
 41 42  1  0
 41 43  1  0
 39 44  1  0
 44 45  2  0
 44 46  1  0
 46 47  1  0
 47 48  1  0
 48 49  2  0
 48 50  1  0
 50 51  1  0
 51 52  1  0
 52 53  2  0
 52 54  1  0
 54 55  1  0
 55 56  1  0
 56 57  2  0
 56 58  1  0
 58 59  1  0
 59 60  1  0
 60 61  2  0
 60 62  1  0
 62 63  1  0
 63 64  1  0
 64 65  2  0
 64 66  1  0
 66 67  1  0
 63 68  1  0
 68 69  1  0
 68 70  1  0
 62 71  1  0
 59 72  1  0
 72 73  1  0
 73 74  1  0
 73 75  1  0
 58 76  1  0
 55 77  1  0
 77 78  1  0
 78 79  1  0
 78 80  1  0
 54 81  1  0
 51 82  1  0
 47 83  1  0
  6 84  1  0
  5 85  1  0
 66  7  1  0
  1 86  1  0
  1 87  1  0
  1 88  1  0
  2 89  1  0
  3 90  1  0
  4 91  1  0
  4 92  1  0
  5 93  1  0
  6 94  1  0
  7 95  1  0
 10 96  1  0
 11 97  1  0
 12 98  1  0
 12 99  1  0
 13100  1  0
 13101  1  0
 13102  1  0
 17103  1  0
 17104  1  0
 17105  1  0
 18106  1  0
 18107  1  0
 22108  1  0
 22109  1  0
 22110  1  0
 23111  1  0
 24112  1  0
 24113  1  0
 25114  1  0
 26115  1  0
 26116  1  0
 26117  1  0
 27118  1  0
 27119  1  0
 27120  1  0
 30121  1  0
 31122  1  0
 32123  1  0
 33124  1  0
 33125  1  0
 33126  1  0
 34127  1  0
 34128  1  0
 34129  1  0
 38130  1  0
 38131  1  0
 38132  1  0
 39133  1  0
 40134  1  0
 40135  1  0
 41136  1  0
 42137  1  0
 42138  1  0
 42139  1  0
 43140  1  0
 43141  1  0
 43142  1  0
 46143  1  0
 47144  1  0
 50145  1  0
 51146  1  0
 55147  1  0
 59148  1  0
 63149  1  0
 67150  1  0
 67151  1  0
 67152  1  0
 68153  1  0
 69154  1  0
 69155  1  0
 69156  1  0
 70157  1  0
 70158  1  0
 70159  1  0
 71160  1  0
 71161  1  0
 71162  1  0
 72163  1  0
 72164  1  0
 73165  1  0
 74166  1  0
 74167  1  0
 74168  1  0
 75169  1  0
 75170  1  0
 75171  1  0
 76172  1  0
 76173  1  0
 76174  1  0
 77175  1  0
 77176  1  0
 78177  1  0
 79178  1  0
 79179  1  0
 79180  1  0
 80181  1  0
 80182  1  0
 80183  1  0
 81184  1  0
 81185  1  0
 81186  1  0
 82187  1  0
 82188  1  0
 82189  1  0
 83190  1  0
 83191  1  0
 83192  1  0
 84193  1  0
 85194  1  0
 85195  1  0
 85196  1  0
M  END
