
     RDKit          3D

 88 94  0  0  0  0  0  0  0  0999 V2000
    0.8339   -3.9880    2.2555 C   0  0  0  0  0  0  0  0  0  0  0  0
   -0.0502   -2.8879    2.4640 O   0  0  0  0  0  0  0  0  0  0  0  0
   -1.1040   -2.8927    1.5796 C   0  0  0  0  0  0  0  0  0  0  0  0
   -2.0766   -3.9065    1.5870 C   0  0  0  0  0  0  0  0  0  0  0  0
   -1.8933   -4.9349    2.4752 O   0  0  0  0  0  0  0  0  0  0  0  0
   -2.9311   -5.8983    2.5923 C   0  0  0  0  0  0  0  0  0  0  0  0
   -3.1642   -3.8077    0.7102 C   0  0  0  0  0  0  0  0  0  0  0  0
   -3.3334   -2.6825   -0.1171 C   0  0  0  0  0  0  0  0  0  0  0  0
   -2.3899   -1.6409   -0.0865 C   0  0  0  0  0  0  0  0  0  0  0  0
   -1.2522   -1.7810    0.7326 C   0  0  0  0  0  0  0  0  0  0  0  0
   -0.3345   -0.7510    0.7185 O   0  0  0  0  0  0  0  0  0  0  0  0
    0.9636   -1.0337    0.3351 C   0  0  0  0  0  0  0  0  0  0  0  0
    1.9294   -0.3020    1.0326 C   0  0  0  0  0  0  0  0  0  0  0  0
    3.2944   -0.4406    0.7455 C   0  0  0  0  0  0  0  0  0  0  0  0
    3.6930   -1.3758   -0.2174 C   0  0  0  0  0  0  0  0  0  0  0  0
    2.7195   -2.0847   -0.9430 C   0  0  0  0  0  0  0  0  0  0  0  0
    1.3520   -1.8943   -0.7031 C   0  0  0  0  0  0  0  0  0  0  0  0
    0.3649   -2.5185   -1.4163 O   0  0  0  0  0  0  0  0  0  0  0  0
    0.7169   -3.1158   -2.6536 C   0  0  0  0  0  0  0  0  0  0  0  0
    5.1561   -1.6876   -0.4210 C   0  0  0  0  0  0  0  0  0  0  0  0
    6.1310   -0.7967    0.3714 C   0  0  0  0  0  0  0  0  0  0  0  0
    5.5749   -0.3358    1.6501 N   0  0  0  0  0  0  0  0  0  0  0  0
    4.3204    0.4379    1.4505 C   0  0  1  0  0  0  0  0  0  0  0  0
    4.5107    1.8020    0.7103 C   0  0  0  0  0  0  0  0  0  0  0  0
    3.2490    2.5865    0.4160 C   0  0  0  0  0  0  0  0  0  0  0  0
    2.7366    2.6158   -0.8926 C   0  0  0  0  0  0  0  0  0  0  0  0
    1.5670    3.3171   -1.1815 C   0  0  0  0  0  0  0  0  0  0  0  0
    0.8941    3.9756   -0.1566 C   0  0  0  0  0  0  0  0  0  0  0  0
   -0.2221    4.7134   -0.4430 O   0  0  0  0  0  0  0  0  0  0  0  0
   -1.4556    4.0856   -0.4470 C   0  0  0  0  0  0  0  0  0  0  0  0
   -1.6569    2.7192   -0.1990 C   0  0  0  0  0  0  0  0  0  0  0  0
   -2.9500    2.1754   -0.1964 C   0  0  0  0  0  0  0  0  0  0  0  0
   -3.1759    0.7169    0.1411 C   0  0  0  0  0  0  0  0  0  0  0  0
   -2.6266   -0.3461   -0.8720 C   0  0  2  0  0  0  0  0  0  0  0  0
   -3.4500   -0.6245   -2.0780 N   0  0  0  0  0  0  0  0  0  0  0  0
   -4.7158   -1.2760   -1.7436 C   0  0  0  0  0  0  0  0  0  0  0  0
   -4.4846   -2.6458   -1.0911 C   0  0  0  0  0  0  0  0  0  0  0  0
   -3.6450    0.5324   -2.9386 C   0  0  0  0  0  0  0  0  0  0  0  0
   -4.0397    3.0218   -0.4317 C   0  0  0  0  0  0  0  0  0  0  0  0
   -3.8468    4.3800   -0.6949 C   0  0  0  0  0  0  0  0  0  0  0  0
   -2.5590    4.9208   -0.7081 C   0  0  0  0  0  0  0  0  0  0  0  0
   -2.2757    6.2445   -0.9416 O   0  0  0  0  0  0  0  0  0  0  0  0
   -3.3482    7.0858   -1.3369 C   0  0  0  0  0  0  0  0  0  0  0  0
    1.3982    3.9746    1.1432 C   0  0  0  0  0  0  0  0  0  0  0  0
    2.5731    3.2771    1.4311 C   0  0  0  0  0  0  0  0  0  0  0  0
    6.5680    0.3770    2.4429 C   0  0  0  0  0  0  0  0  0  0  0  0
    0.5933   -4.7992    2.9493 H   0  0  0  0  0  0  0  0  0  0  0  0
    1.8493   -3.6463    2.4847 H   0  0  0  0  0  0  0  0  0  0  0  0
    0.8266   -4.3566    1.2228 H   0  0  0  0  0  0  0  0  0  0  0  0
   -3.8815   -5.4319    2.8728 H   0  0  0  0  0  0  0  0  0  0  0  0
   -2.6540   -6.5922    3.3922 H   0  0  0  0  0  0  0  0  0  0  0  0
   -3.0326   -6.4791    1.6693 H   0  0  0  0  0  0  0  0  0  0  0  0
   -3.9107   -4.5933    0.6527 H   0  0  0  0  0  0  0  0  0  0  0  0
    1.6011    0.3910    1.8044 H   0  0  0  0  0  0  0  0  0  0  0  0
    3.0590   -2.8002   -1.6850 H   0  0  0  0  0  0  0  0  0  0  0  0
    1.2313   -2.4051   -3.3096 H   0  0  0  0  0  0  0  0  0  0  0  0
   -0.2106   -3.4185   -3.1513 H   0  0  0  0  0  0  0  0  0  0  0  0
    1.3200   -4.0166   -2.4971 H   0  0  0  0  0  0  0  0  0  0  0  0
    5.3945   -1.6075   -1.4904 H   0  0  0  0  0  0  0  0  0  0  0  0
    5.3163   -2.7330   -0.1216 H   0  0  0  0  0  0  0  0  0  0  0  0
    7.0487   -1.3733    0.5403 H   0  0  0  0  0  0  0  0  0  0  0  0
    6.4330    0.0517   -0.2534 H   0  0  0  0  0  0  0  0  0  0  0  0
    3.9189    0.6477    2.4518 H   0  0  0  0  0  0  0  0  0  0  0  0
    5.1681    2.4531    1.2995 H   0  0  0  0  0  0  0  0  0  0  0  0
    5.0341    1.6525   -0.2411 H   0  0  0  0  0  0  0  0  0  0  0  0
    3.2446    2.0857   -1.6954 H   0  0  0  0  0  0  0  0  0  0  0  0
    1.1810    3.3456   -2.1959 H   0  0  0  0  0  0  0  0  0  0  0  0
   -0.8162    2.0659    0.0195 H   0  0  0  0  0  0  0  0  0  0  0  0
   -4.2416    0.5441    0.3345 H   0  0  0  0  0  0  0  0  0  0  0  0
   -2.7128    0.5724    1.1281 H   0  0  0  0  0  0  0  0  0  0  0  0
   -1.6501   -0.0166   -1.2508 H   0  0  0  0  0  0  0  0  0  0  0  0
   -5.3135   -1.4380   -2.6489 H   0  0  0  0  0  0  0  0  0  0  0  0
   -5.3279   -0.6478   -1.0865 H   0  0  0  0  0  0  0  0  0  0  0  0
   -4.2728   -3.3821   -1.8786 H   0  0  0  0  0  0  0  0  0  0  0  0
   -5.4082   -2.9561   -0.5873 H   0  0  0  0  0  0  0  0  0  0  0  0
   -4.0346    0.2093   -3.9102 H   0  0  0  0  0  0  0  0  0  0  0  0
   -2.6978    1.0442   -3.1403 H   0  0  0  0  0  0  0  0  0  0  0  0
   -4.3605    1.2484   -2.5271 H   0  0  0  0  0  0  0  0  0  0  0  0
   -5.0540    2.6281   -0.4101 H   0  0  0  0  0  0  0  0  0  0  0  0
   -4.7254    4.9909   -0.8684 H   0  0  0  0  0  0  0  0  0  0  0  0
   -2.9330    8.0712   -1.5644 H   0  0  0  0  0  0  0  0  0  0  0  0
   -3.8319    6.7145   -2.2456 H   0  0  0  0  0  0  0  0  0  0  0  0
   -4.0705    7.2084   -0.5251 H   0  0  0  0  0  0  0  0  0  0  0  0
    0.8774    4.5190    1.9257 H   0  0  0  0  0  0  0  0  0  0  0  0
    2.9550    3.2752    2.4487 H   0  0  0  0  0  0  0  0  0  0  0  0
    7.3962   -0.2944    2.7004 H   0  0  0  0  0  0  0  0  0  0  0  0
    6.9877    1.2426    1.9195 H   0  0  0  0  0  0  0  0  0  0  0  0
    6.1387    0.7161    3.3940 H   0  0  0  0  0  0  0  0  0  0  0  0
  1  2  1  0
  2  3  1  0
  3  4  2  0
  4  5  1  0
  5  6  1  0
  4  7  1  0
  7  8  2  0
  8  9  1  0
  9 10  2  0
 10 11  1  0
 11 12  1  0
 12 13  2  0
 13 14  1  0
 14 15  2  0
 15 16  1  0
 16 17  2  0
 17 18  1  0
 18 19  1  0
 15 20  1  0
 20 21  1  0
 21 22  1  0
 22 23  1  0
 23 24  1  0
 24 25  1  0
 25 26  2  0
 26 27  1  0
 27 28  2  0
 28 29  1  0
 29 30  1  0
 30 31  2  0
 31 32  1  0
 32 33  1  0
 33 34  1  0
 34 35  1  0
 35 36  1  0
 36 37  1  0
 35 38  1  0
 32 39  2  0
 39 40  1  0
 40 41  2  0
 41 42  1  0
 42 43  1  0
 28 44  1  0
 44 45  2  0
 22 46  1  0
 10  3  1  0
 17 12  1  0
 45 25  1  0
 37  8  1  0
 34  9  1  0
 23 14  1  0
 41 30  1  0
  1 47  1  0
  1 48  1  0
  1 49  1  0
  6 50  1  0
  6 51  1  0
  6 52  1  0
  7 53  1  0
 13 54  1  0
 16 55  1  0
 19 56  1  0
 19 57  1  0
 19 58  1  0
 20 59  1  0
 20 60  1  0
 21 61  1  0
 21 62  1  0
 23 63  1  1
 24 64  1  0
 24 65  1  0
 26 66  1  0
 27 67  1  0
 31 68  1  0
 33 69  1  0
 33 70  1  0
 34 71  1  6
 36 72  1  0
 36 73  1  0
 37 74  1  0
 37 75  1  0
 38 76  1  0
 38 77  1  0
 38 78  1  0
 39 79  1  0
 40 80  1  0
 43 81  1  0
 43 82  1  0
 43 83  1  0
 44 84  1  0
 45 85  1  0
 46 86  1  0
 46 87  1  0
 46 88  1  0
M  END
