
     RDKit          3D

 65 68  0  0  0  0  0  0  0  0999 V2000
   -8.9220    3.5357    0.5879 C   0  0  0  0  0  0  0  0  0  0  0  0
   -8.6236    2.1018    0.1925 C   0  0  0  0  0  0  0  0  0  0  0  0
   -7.2495    1.8328    0.4982 O   0  0  0  0  0  0  0  0  0  0  0  0
   -6.8382    0.5729    0.1753 C   0  0  0  0  0  0  0  0  0  0  0  0
   -7.5429   -0.2837   -0.3399 O   0  0  0  0  0  0  0  0  0  0  0  0
   -5.3728    0.4074    0.5314 C   0  0  0  0  0  0  0  0  0  0  0  0
   -4.4977    1.0552   -0.5530 C   0  0  0  0  0  0  0  0  0  0  0  0
   -3.8174    0.0041   -1.4248 C   0  0  0  0  0  0  0  0  0  0  0  0
   -2.9745   -0.8807   -0.6076 N   0  0  0  0  0  0  0  0  0  0  0  0
   -3.5246   -1.3036    0.6950 C   0  0  0  0  0  0  0  0  0  0  0  0
   -5.0308   -1.0724    0.7629 C   0  0  0  0  0  0  0  0  0  0  0  0
   -1.5778   -0.7133   -0.6126 C   0  0  0  0  0  0  0  0  0  0  0  0
   -0.7618   -1.8196   -0.2797 C   0  0  0  0  0  0  0  0  0  0  0  0
    0.6461   -1.7634   -0.2435 C   0  0  0  0  0  0  0  0  0  0  0  0
    1.4685   -2.8655    0.0834 N   0  0  0  0  0  0  0  0  0  0  0  0
    0.8711   -4.1663    0.4378 C   0  0  0  0  0  0  0  0  0  0  0  0
    0.4774   -4.2050    1.9078 C   0  0  0  0  0  0  0  0  0  0  0  0
    2.8465   -2.6894    0.1244 C   0  0  0  0  0  0  0  0  0  0  0  0
    3.5229   -1.5631   -0.1421 C   0  0  0  0  0  0  0  0  0  0  0  0
    2.7162   -0.3781   -0.5159 C   0  0  0  0  0  0  0  0  0  0  0  0
    3.2431    0.7040   -0.7734 O   0  0  0  0  0  0  0  0  0  0  0  0
    1.2403   -0.5261   -0.5581 C   0  0  0  0  0  0  0  0  0  0  0  0
    0.4690    0.5868   -0.9021 C   0  0  0  0  0  0  0  0  0  0  0  0
   -0.9165    0.4839   -0.9295 C   0  0  0  0  0  0  0  0  0  0  0  0
   -1.6036    1.5973   -1.2274 F   0  0  0  0  0  0  0  0  0  0  0  0
    5.0085   -1.5782   -0.0284 C   0  0  0  0  0  0  0  0  0  0  0  0
    5.6302   -2.6047    0.2361 O   0  0  0  0  0  0  0  0  0  0  0  0
    5.6244   -0.3735   -0.2371 N   0  0  0  0  0  0  0  0  0  0  0  0
    7.0526   -0.2234   -0.1237 C   0  0  0  0  0  0  0  0  0  0  0  0
    7.4729    1.2086   -0.3279 C   0  0  0  0  0  0  0  0  0  0  0  0
    7.8051    1.6391   -1.6250 C   0  0  0  0  0  0  0  0  0  0  0  0
    8.1784    2.9627   -1.8651 C   0  0  0  0  0  0  0  0  0  0  0  0
    8.2150    3.8724   -0.8122 C   0  0  0  0  0  0  0  0  0  0  0  0
    7.8777    3.4730    0.4776 C   0  0  0  0  0  0  0  0  0  0  0  0
    7.5027    2.1477    0.7174 C   0  0  0  0  0  0  0  0  0  0  0  0
    7.0736    1.7222    2.3358 Cl  0  0  0  0  0  0  0  0  0  0  0  0
    8.6744    5.5040   -1.1091 Cl  0  0  0  0  0  0  0  0  0  0  0  0
   -9.9633    3.7914    0.3734 H   0  0  0  0  0  0  0  0  0  0  0  0
   -8.7334    3.6884    1.6555 H   0  0  0  0  0  0  0  0  0  0  0  0
   -8.2693    4.2292    0.0464 H   0  0  0  0  0  0  0  0  0  0  0  0
   -9.2688    1.4190    0.7589 H   0  0  0  0  0  0  0  0  0  0  0  0
   -8.7966    1.9713   -0.8826 H   0  0  0  0  0  0  0  0  0  0  0  0
   -5.2111    0.9386    1.4799 H   0  0  0  0  0  0  0  0  0  0  0  0
   -3.7359    1.6721   -0.0601 H   0  0  0  0  0  0  0  0  0  0  0  0
   -5.0803    1.7330   -1.1886 H   0  0  0  0  0  0  0  0  0  0  0  0
   -4.5827   -0.6110   -1.9156 H   0  0  0  0  0  0  0  0  0  0  0  0
   -3.2652    0.4675   -2.2498 H   0  0  0  0  0  0  0  0  0  0  0  0
   -3.3302   -2.3708    0.8540 H   0  0  0  0  0  0  0  0  0  0  0  0
   -3.0446   -0.7487    1.5134 H   0  0  0  0  0  0  0  0  0  0  0  0
   -5.4147   -1.3905    1.7403 H   0  0  0  0  0  0  0  0  0  0  0  0
   -5.5237   -1.7133    0.0203 H   0  0  0  0  0  0  0  0  0  0  0  0
   -1.2716   -2.7531   -0.0671 H   0  0  0  0  0  0  0  0  0  0  0  0
    0.0208   -4.4143   -0.2061 H   0  0  0  0  0  0  0  0  0  0  0  0
    1.5996   -4.9662    0.2551 H   0  0  0  0  0  0  0  0  0  0  0  0
    0.0914   -5.1943    2.1713 H   0  0  0  0  0  0  0  0  0  0  0  0
   -0.2972   -3.4674    2.1392 H   0  0  0  0  0  0  0  0  0  0  0  0
    1.3388   -3.9942    2.5500 H   0  0  0  0  0  0  0  0  0  0  0  0
    3.3861   -3.5902    0.4134 H   0  0  0  0  0  0  0  0  0  0  0  0
    0.9327    1.5397   -1.1392 H   0  0  0  0  0  0  0  0  0  0  0  0
    5.0504    0.4363   -0.4712 H   0  0  0  0  0  0  0  0  0  0  0  0
    7.3830   -0.6116    0.8460 H   0  0  0  0  0  0  0  0  0  0  0  0
    7.5200   -0.8713   -0.8758 H   0  0  0  0  0  0  0  0  0  0  0  0
    7.7695    0.9414   -2.4604 H   0  0  0  0  0  0  0  0  0  0  0  0
    8.4320    3.2743   -2.8758 H   0  0  0  0  0  0  0  0  0  0  0  0
    7.9014    4.1924    1.2921 H   0  0  0  0  0  0  0  0  0  0  0  0
  1  2  1  0
  2  3  1  0
  3  4  1  0
  4  5  2  0
  4  6  1  0
  6  7  1  0
  7  8  1  0
  8  9  1  0
  9 10  1  0
 10 11  1  0
  9 12  1  0
 12 13  2  0
 13 14  1  0
 14 15  1  0
 15 16  1  0
 16 17  1  0
 15 18  1  0
 18 19  2  0
 19 20  1  0
 20 21  2  0
 20 22  1  0
 22 23  1  0
 23 24  2  0
 24 25  1  0
 19 26  1  0
 26 27  2  0
 26 28  1  0
 28 29  1  0
 29 30  1  0
 30 31  2  0
 31 32  1  0
 32 33  2  0
 33 34  1  0
 34 35  2  0
 35 36  1  0
 33 37  1  0
 11  6  1  0
 24 12  1  0
 35 30  1  0
 22 14  2  0
  1 38  1  0
  1 39  1  0
  1 40  1  0
  2 41  1  0
  2 42  1  0
  6 43  1  0
  7 44  1  0
  7 45  1  0
  8 46  1  0
  8 47  1  0
 10 48  1  0
 10 49  1  0
 11 50  1  0
 11 51  1  0
 13 52  1  0
 16 53  1  0
 16 54  1  0
 17 55  1  0
 17 56  1  0
 17 57  1  0
 18 58  1  0
 23 59  1  0
 28 60  1  0
 29 61  1  0
 29 62  1  0
 31 63  1  0
 32 64  1  0
 34 65  1  0
M  END
