
     RDKit          3D

 43 45  0  0  0  0  0  0  0  0999 V2000
    5.3231    1.2462   -0.2558 C   0  0  0  0  0  0  0  0  0  0  0  0
    4.7061    0.0714    0.5101 C   0  0  0  0  0  0  0  0  0  0  0  0
    3.1902    0.1428    0.4522 C   0  0  0  0  0  0  0  0  0  0  0  0
    2.3851   -0.6347   -0.2903 C   0  0  0  0  0  0  0  0  0  0  0  0
    0.9196   -0.5605   -0.2487 C   0  0  0  0  0  0  0  0  0  0  0  0
    0.1803   -1.5349   -0.9181 C   0  0  0  0  0  0  0  0  0  0  0  0
   -1.2131   -1.4871   -0.9191 C   0  0  0  0  0  0  0  0  0  0  0  0
   -1.9186   -0.4690   -0.2500 C   0  0  0  0  0  0  0  0  0  0  0  0
   -1.1800    0.5053    0.4667 C   0  0  0  0  0  0  0  0  0  0  0  0
    0.2407    0.4632    0.4289 C   0  0  0  0  0  0  0  0  0  0  0  0
    1.0928    1.5008    1.0633 C   0  0  0  0  0  0  0  0  0  0  0  0
    0.6939    2.6270    1.3234 O   0  0  0  0  0  0  0  0  0  0  0  0
    2.5417    1.1424    1.3491 C   0  0  0  0  0  0  0  0  0  0  0  0
    3.1396    1.6752    2.2737 O   0  0  0  0  0  0  0  0  0  0  0  0
   -1.8903    1.5940    1.2450 C   0  0  0  0  0  0  0  0  0  0  0  0
   -3.3599    1.3107    1.5225 C   0  0  0  0  0  0  0  0  0  0  0  0
   -4.0443    0.8589    0.2461 C   0  0  0  0  0  0  0  0  0  0  0  0
   -3.4565   -0.4707   -0.2840 C   0  0  0  0  0  0  0  0  0  0  0  0
   -3.9931   -0.6457   -1.7242 C   0  0  0  0  0  0  0  0  0  0  0  0
   -3.9723   -1.6473    0.5740 C   0  0  0  0  0  0  0  0  0  0  0  0
    5.3064   -1.2445   -0.0011 C   0  0  0  0  0  0  0  0  0  0  0  0
    6.4157    1.2283   -0.1781 H   0  0  0  0  0  0  0  0  0  0  0  0
    4.9816    2.2079    0.1419 H   0  0  0  0  0  0  0  0  0  0  0  0
    5.0610    1.2103   -1.3194 H   0  0  0  0  0  0  0  0  0  0  0  0
    5.0125    0.1520    1.5615 H   0  0  0  0  0  0  0  0  0  0  0  0
    2.8067   -1.3866   -0.9520 H   0  0  0  0  0  0  0  0  0  0  0  0
    0.6737   -2.3450   -1.4514 H   0  0  0  0  0  0  0  0  0  0  0  0
   -1.7466   -2.2733   -1.4503 H   0  0  0  0  0  0  0  0  0  0  0  0
   -1.4060    1.7367    2.2178 H   0  0  0  0  0  0  0  0  0  0  0  0
   -1.8106    2.5289    0.6764 H   0  0  0  0  0  0  0  0  0  0  0  0
   -3.4595    0.5506    2.3055 H   0  0  0  0  0  0  0  0  0  0  0  0
   -3.8401    2.2188    1.9050 H   0  0  0  0  0  0  0  0  0  0  0  0
   -3.9304    1.6498   -0.5085 H   0  0  0  0  0  0  0  0  0  0  0  0
   -5.1224    0.7571    0.4234 H   0  0  0  0  0  0  0  0  0  0  0  0
   -3.5744    0.1117   -2.3975 H   0  0  0  0  0  0  0  0  0  0  0  0
   -5.0851   -0.5489   -1.7497 H   0  0  0  0  0  0  0  0  0  0  0  0
   -3.7537   -1.6282   -2.1443 H   0  0  0  0  0  0  0  0  0  0  0  0
   -3.6713   -2.6147    0.1550 H   0  0  0  0  0  0  0  0  0  0  0  0
   -3.5837   -1.6091    1.5975 H   0  0  0  0  0  0  0  0  0  0  0  0
   -5.0668   -1.6452    0.6302 H   0  0  0  0  0  0  0  0  0  0  0  0
    4.8716   -2.1051    0.5191 H   0  0  0  0  0  0  0  0  0  0  0  0
    5.1484   -1.3745   -1.0774 H   0  0  0  0  0  0  0  0  0  0  0  0
    6.3876   -1.2650    0.1759 H   0  0  0  0  0  0  0  0  0  0  0  0
  1  2  1  0
  2  3  1  0
  3  4  2  0
  4  5  1  0
  5  6  2  0
  6  7  1  0
  7  8  2  0
  8  9  1  0
  9 10  2  0
 10 11  1  0
 11 12  2  0
 11 13  1  0
 13 14  2  0
  9 15  1  0
 15 16  1  0
 16 17  1  0
 17 18  1  0
 18 19  1  0
 18 20  1  0
  2 21  1  0
 13  3  1  0
 10  5  1  0
 18  8  1  0
  1 22  1  0
  1 23  1  0
  1 24  1  0
  2 25  1  0
  4 26  1  0
  6 27  1  0
  7 28  1  0
 15 29  1  0
 15 30  1  0
 16 31  1  0
 16 32  1  0
 17 33  1  0
 17 34  1  0
 19 35  1  0
 19 36  1  0
 19 37  1  0
 20 38  1  0
 20 39  1  0
 20 40  1  0
 21 41  1  0
 21 42  1  0
 21 43  1  0
M  END
