
     RDKit          3D

 53 57  0  0  0  0  0  0  0  0999 V2000
    8.0093   -0.6838   -0.6637 C   0  0  0  0  0  0  0  0  0  0  0  0
    7.7164    0.5663   -0.0508 O   0  0  0  0  0  0  0  0  0  0  0  0
    6.3934    0.8724    0.1252 C   0  0  0  0  0  0  0  0  0  0  0  0
    6.1597    2.0915    0.7620 C   0  0  0  0  0  0  0  0  0  0  0  0
    4.8617    2.5463    1.0183 C   0  0  0  0  0  0  0  0  0  0  0  0
    3.7904    1.7361    0.6154 C   0  0  0  0  0  0  0  0  0  0  0  0
    3.9924    0.5158   -0.0246 C   0  0  0  0  0  0  0  0  0  0  0  0
    5.3129    0.0801   -0.2738 C   0  0  0  0  0  0  0  0  0  0  0  0
    2.8391   -0.1694   -0.3658 N   0  0  0  0  0  0  0  0  0  0  0  0
    1.7711    0.4925    0.0137 C   0  0  0  0  0  0  0  0  0  0  0  0
    2.1021    1.9986    0.7853 S   0  0  0  0  0  0  0  0  0  0  0  0
    0.5357    0.0127   -0.2335 N   0  0  0  0  0  0  0  0  0  0  0  0
   -0.6506    0.3332    0.5367 C   0  0  0  0  0  0  0  0  0  0  0  0
   -1.3894   -0.9234    1.0005 C   0  0  0  0  0  0  0  0  0  0  0  0
   -2.0039   -0.9209    2.2654 C   0  0  0  0  0  0  0  0  0  0  0  0
   -2.7153   -2.0328    2.7241 C   0  0  0  0  0  0  0  0  0  0  0  0
   -2.8354   -3.1786    1.9226 C   0  0  0  0  0  0  0  0  0  0  0  0
   -2.2395   -3.2094    0.6487 C   0  0  0  0  0  0  0  0  0  0  0  0
   -1.5348   -2.0824    0.2214 C   0  0  0  0  0  0  0  0  0  0  0  0
   -0.9508   -2.1489   -1.0286 O   0  0  0  0  0  0  0  0  0  0  0  0
   -2.3209   -4.2806   -0.1704 N   0  0  0  0  0  0  0  0  0  0  0  0
   -3.0054   -5.3580    0.2740 C   0  0  0  0  0  0  0  0  0  0  0  0
   -3.6235   -5.4235    1.5095 C   0  0  0  0  0  0  0  0  0  0  0  0
   -3.5367   -4.3159    2.3446 C   0  0  0  0  0  0  0  0  0  0  0  0
   -1.5656    1.2775   -0.2388 C   0  0  0  0  0  0  0  0  0  0  0  0
   -1.8135    1.1085   -1.6102 C   0  0  0  0  0  0  0  0  0  0  0  0
   -2.6776    1.9683   -2.2928 C   0  0  0  0  0  0  0  0  0  0  0  0
   -3.3294    2.9982   -1.6158 C   0  0  0  0  0  0  0  0  0  0  0  0
   -3.0778    3.1950   -0.2579 C   0  0  0  0  0  0  0  0  0  0  0  0
   -2.2081    2.3372    0.4251 C   0  0  0  0  0  0  0  0  0  0  0  0
   -4.1550    3.7766   -2.3783 O   0  0  0  0  0  0  0  0  0  0  0  0
   -5.2990    4.2657   -1.6989 C   0  0  0  0  0  0  0  0  0  0  0  0
   -6.1934    4.6581   -2.6423 F   0  0  0  0  0  0  0  0  0  0  0  0
   -4.9610    5.3777   -1.0015 F   0  0  0  0  0  0  0  0  0  0  0  0
    9.0969   -0.7839   -0.7134 H   0  0  0  0  0  0  0  0  0  0  0  0
    7.6238   -0.7179   -1.6873 H   0  0  0  0  0  0  0  0  0  0  0  0
    7.6241   -1.5166   -0.0662 H   0  0  0  0  0  0  0  0  0  0  0  0
    7.0066    2.7039    1.0680 H   0  0  0  0  0  0  0  0  0  0  0  0
    4.6930    3.4962    1.5167 H   0  0  0  0  0  0  0  0  0  0  0  0
    5.4379   -0.8720   -0.7740 H   0  0  0  0  0  0  0  0  0  0  0  0
    0.4817   -0.8844   -0.7119 H   0  0  0  0  0  0  0  0  0  0  0  0
   -0.3409    0.8507    1.4542 H   0  0  0  0  0  0  0  0  0  0  0  0
   -1.9331   -0.0461    2.9093 H   0  0  0  0  0  0  0  0  0  0  0  0
   -3.1747   -1.9985    3.7098 H   0  0  0  0  0  0  0  0  0  0  0  0
   -1.1972   -3.0429   -1.3550 H   0  0  0  0  0  0  0  0  0  0  0  0
   -3.0442   -6.1980   -0.4143 H   0  0  0  0  0  0  0  0  0  0  0  0
   -4.1590   -6.3154    1.8153 H   0  0  0  0  0  0  0  0  0  0  0  0
   -4.0144   -4.3437    3.3211 H   0  0  0  0  0  0  0  0  0  0  0  0
   -1.3264    0.3047   -2.1594 H   0  0  0  0  0  0  0  0  0  0  0  0
   -2.8461    1.8237   -3.3576 H   0  0  0  0  0  0  0  0  0  0  0  0
   -3.5220    4.0217    0.2902 H   0  0  0  0  0  0  0  0  0  0  0  0
   -2.0267    2.5103    1.4845 H   0  0  0  0  0  0  0  0  0  0  0  0
   -5.7770    3.5275   -1.0447 H   0  0  0  0  0  0  0  0  0  0  0  0
  1  2  1  0
  2  3  1  0
  3  4  2  0
  4  5  1  0
  5  6  2  0
  6  7  1  0
  7  8  2  0
  7  9  1  0
  9 10  2  0
 10 11  1  0
 10 12  1  0
 12 13  1  0
 13 14  1  0
 14 15  2  0
 15 16  1  0
 16 17  2  0
 17 18  1  0
 18 19  2  0
 19 20  1  0
 18 21  1  0
 21 22  2  0
 22 23  1  0
 23 24  2  0
 13 25  1  0
 25 26  2  0
 26 27  1  0
 27 28  2  0
 28 29  1  0
 29 30  2  0
 28 31  1  0
 31 32  1  0
 32 33  1  0
 32 34  1  0
  8  3  1  0
 19 14  1  0
 30 25  1  0
 11  6  1  0
 24 17  1  0
  1 35  1  0
  1 36  1  0
  1 37  1  0
  4 38  1  0
  5 39  1  0
  8 40  1  0
 12 41  1  0
 13 42  1  0
 15 43  1  0
 16 44  1  0
 20 45  1  0
 22 46  1  0
 23 47  1  0
 24 48  1  0
 26 49  1  0
 27 50  1  0
 29 51  1  0
 30 52  1  0
 32 53  1  0
M  END
