
     RDKit          3D

 35 38  0  0  0  0  0  0  0  0999 V2000
   -3.3620   -2.2514    0.1214 O   0  0  0  0  0  0  0  0  0  0  0  0
   -2.9618   -1.4496    1.2375 C   0  0  0  0  0  0  0  0  0  0  0  0
   -1.9663   -0.3385    0.8319 C   0  0  1  0  0  0  0  0  0  0  0  0
   -1.6006    0.6998    2.3537 S   0  0  0  0  0  0  0  0  0  0  0  0
   -0.1372    1.9706    1.6099 S   0  0  0  0  0  0  0  0  0  0  0  0
   -0.0634    1.3685   -0.1387 C   0  0  2  0  0  0  0  0  0  0  0  0
    0.2833   -0.0530   -0.1213 N   0  0  0  0  0  0  0  0  0  0  0  0
   -0.5943   -0.9783    0.4180 C   0  0  0  0  0  0  0  0  0  0  0  0
   -0.2569   -2.1396    0.6393 O   0  0  0  0  0  0  0  0  0  0  0  0
    1.6310   -0.3285   -0.5892 C   0  0  2  0  0  0  0  0  0  0  0  0
    2.5326   -1.1633    0.3682 C   0  0  1  0  0  0  0  0  0  0  0  0
    2.3657   -2.5582    0.1128 O   0  0  0  0  0  0  0  0  0  0  0  0
    3.9938   -0.8471    0.1779 C   0  0  0  0  0  0  0  0  0  0  0  0
    4.4107    0.3198   -0.3428 C   0  0  0  0  0  0  0  0  0  0  0  0
    3.4689    1.3632   -0.6832 C   0  0  0  0  0  0  0  0  0  0  0  0
    2.1669    1.0711   -0.8123 C   0  0  0  0  0  0  0  0  0  0  0  0
    1.0292    2.0382   -0.9732 C   0  0  0  0  0  0  0  0  0  0  0  0
   -1.4857    1.5383   -0.7334 C   0  0  0  0  0  0  0  0  0  0  0  0
   -1.7991    2.4786   -1.4600 O   0  0  0  0  0  0  0  0  0  0  0  0
   -2.4044    0.5834   -0.2577 N   0  0  0  0  0  0  0  0  0  0  0  0
   -3.8112    0.7256   -0.5858 C   0  0  0  0  0  0  0  0  0  0  0  0
   -3.7797   -3.0562    0.4772 H   0  0  0  0  0  0  0  0  0  0  0  0
   -3.8759   -1.0246    1.6667 H   0  0  0  0  0  0  0  0  0  0  0  0
   -2.5184   -2.1209    1.9827 H   0  0  0  0  0  0  0  0  0  0  0  0
    1.5186   -0.8440   -1.5519 H   0  0  0  0  0  0  0  0  0  0  0  0
    2.2713   -0.9859    1.4186 H   0  0  0  0  0  0  0  0  0  0  0  0
    1.4185   -2.7437    0.2955 H   0  0  0  0  0  0  0  0  0  0  0  0
    4.7144   -1.6014    0.4786 H   0  0  0  0  0  0  0  0  0  0  0  0
    5.4700    0.5274   -0.4653 H   0  0  0  0  0  0  0  0  0  0  0  0
    3.8442    2.3773   -0.7860 H   0  0  0  0  0  0  0  0  0  0  0  0
    0.7541    2.0766   -2.0341 H   0  0  0  0  0  0  0  0  0  0  0  0
    1.2703    3.0544   -0.6458 H   0  0  0  0  0  0  0  0  0  0  0  0
   -4.3602    1.0125    0.3154 H   0  0  0  0  0  0  0  0  0  0  0  0
   -3.9692    1.4952   -1.3462 H   0  0  0  0  0  0  0  0  0  0  0  0
   -4.1971   -0.2166   -0.9785 H   0  0  0  0  0  0  0  0  0  0  0  0
  1  2  1  0
  3  2  1  1
  3  4  1  0
  4  5  1  0
  5  6  1  0
  6  7  1  0
  7  8  1  0
  8  9  2  0
  7 10  1  0
 10 11  1  0
 11 12  1  0
 11 13  1  0
 13 14  2  0
 14 15  1  0
 15 16  2  0
 16 17  1  0
  6 18  1  0
 18 19  2  0
 18 20  1  0
 20 21  1  0
  8  3  1  0
 16 10  1  0
 20  3  1  0
  6 17  1  6
  1 22  1  0
  2 23  1  0
  2 24  1  0
 10 25  1  6
 11 26  1  1
 12 27  1  0
 13 28  1  0
 14 29  1  0
 15 30  1  0
 17 31  1  0
 17 32  1  0
 21 33  1  0
 21 34  1  0
 21 35  1  0
M  END
