
     RDKit          3D

 48 52  0  0  0  0  0  0  0  0999 V2000
   -0.7457   -0.6059    2.0941 O   0  0  0  0  0  0  0  0  0  0  0  0
   -1.5257   -0.9416    1.1945 C   0  0  0  0  0  0  0  0  0  0  0  0
   -2.6330   -0.1616    0.8607 N   0  0  0  0  0  0  0  0  0  0  0  0
   -2.5660    1.2629    1.1886 C   0  0  0  0  0  0  0  0  0  0  0  0
   -2.9564    2.1001   -0.0167 C   0  0  0  0  0  0  0  0  0  0  0  0
   -4.3924    1.7912   -0.4065 C   0  0  0  0  0  0  0  0  0  0  0  0
   -4.7008    0.3143   -0.3729 C   0  0  0  0  0  0  0  0  0  0  0  0
   -3.8498   -0.6150    0.2612 C   0  0  0  0  0  0  0  0  0  0  0  0
   -4.2665   -1.9516    0.3420 C   0  0  0  0  0  0  0  0  0  0  0  0
   -5.4625   -2.3735   -0.2464 C   0  0  0  0  0  0  0  0  0  0  0  0
   -6.2757   -1.4599   -0.9051 C   0  0  0  0  0  0  0  0  0  0  0  0
   -5.9039   -0.1199   -0.9567 C   0  0  0  0  0  0  0  0  0  0  0  0
   -1.2273   -2.1653    0.3274 C   0  0  0  0  0  0  0  0  0  0  0  0
    0.5552   -2.2644   -0.0639 S   0  0  0  0  0  0  0  0  0  0  0  0
    0.7741   -0.7303   -0.8456 C   0  0  0  0  0  0  0  0  0  0  0  0
   -0.0998   -0.1878   -1.6641 N   0  0  0  0  0  0  0  0  0  0  0  0
    0.5114    0.9144   -2.1892 N   0  0  0  0  0  0  0  0  0  0  0  0
    1.7395    1.0520   -1.7140 N   0  0  0  0  0  0  0  0  0  0  0  0
    1.9279    0.0412   -0.8235 N   0  0  0  0  0  0  0  0  0  0  0  0
    3.0857   -0.0147   -0.0006 C   0  0  0  0  0  0  0  0  0  0  0  0
    2.9199   -0.3917    1.3446 C   0  0  0  0  0  0  0  0  0  0  0  0
    4.0049   -0.4036    2.2126 C   0  0  0  0  0  0  0  0  0  0  0  0
    5.2632   -0.0341    1.7526 C   0  0  0  0  0  0  0  0  0  0  0  0
    5.4642    0.3462    0.4184 C   0  0  0  0  0  0  0  0  0  0  0  0
    4.3771    0.3613   -0.4971 C   0  0  0  0  0  0  0  0  0  0  0  0
    4.6908    0.7073   -1.8408 C   0  0  0  0  0  0  0  0  0  0  0  0
    5.9838    1.0559   -2.2427 C   0  0  0  0  0  0  0  0  0  0  0  0
    7.0170    1.0588   -1.3200 C   0  0  0  0  0  0  0  0  0  0  0  0
    6.7579    0.7013   -0.0001 C   0  0  0  0  0  0  0  0  0  0  0  0
   -3.2283    1.4489    2.0432 H   0  0  0  0  0  0  0  0  0  0  0  0
   -1.5513    1.5406    1.4944 H   0  0  0  0  0  0  0  0  0  0  0  0
   -2.8487    3.1680    0.2018 H   0  0  0  0  0  0  0  0  0  0  0  0
   -2.2878    1.8700   -0.8563 H   0  0  0  0  0  0  0  0  0  0  0  0
   -4.5856    2.1942   -1.4077 H   0  0  0  0  0  0  0  0  0  0  0  0
   -5.0728    2.2949    0.2918 H   0  0  0  0  0  0  0  0  0  0  0  0
   -3.7072   -2.6897    0.9059 H   0  0  0  0  0  0  0  0  0  0  0  0
   -5.7661   -3.4149   -0.1728 H   0  0  0  0  0  0  0  0  0  0  0  0
   -7.2084   -1.7851   -1.3586 H   0  0  0  0  0  0  0  0  0  0  0  0
   -6.5610    0.5939   -1.4497 H   0  0  0  0  0  0  0  0  0  0  0  0
   -1.7685   -2.1415   -0.6208 H   0  0  0  0  0  0  0  0  0  0  0  0
   -1.5001   -3.0660    0.8836 H   0  0  0  0  0  0  0  0  0  0  0  0
    1.9432   -0.6219    1.7658 H   0  0  0  0  0  0  0  0  0  0  0  0
    3.8652   -0.6822    3.2545 H   0  0  0  0  0  0  0  0  0  0  0  0
    6.0958   -0.0452    2.4539 H   0  0  0  0  0  0  0  0  0  0  0  0
    3.9295    0.7023   -2.6171 H   0  0  0  0  0  0  0  0  0  0  0  0
    6.1754    1.3209   -3.2794 H   0  0  0  0  0  0  0  0  0  0  0  0
    8.0239    1.3294   -1.6256 H   0  0  0  0  0  0  0  0  0  0  0  0
    7.5856    0.6969    0.7067 H   0  0  0  0  0  0  0  0  0  0  0  0
  1  2  2  0
  2  3  1  0
  3  4  1  0
  4  5  1  0
  5  6  1  0
  6  7  1  0
  7  8  2  0
  8  9  1  0
  9 10  2  0
 10 11  1  0
 11 12  2  0
  2 13  1  0
 13 14  1  0
 14 15  1  0
 15 16  2  0
 16 17  1  0
 17 18  2  0
 18 19  1  0
 19 20  1  0
 20 21  2  0
 21 22  1  0
 22 23  2  0
 23 24  1  0
 24 25  2  0
 25 26  1  0
 26 27  2  0
 27 28  1  0
 28 29  2  0
  8  3  1  0
 19 15  1  0
 25 20  1  0
 12  7  1  0
 29 24  1  0
  4 30  1  0
  4 31  1  0
  5 32  1  0
  5 33  1  0
  6 34  1  0
  6 35  1  0
  9 36  1  0
 10 37  1  0
 11 38  1  0
 12 39  1  0
 13 40  1  0
 13 41  1  0
 21 42  1  0
 22 43  1  0
 23 44  1  0
 26 45  1  0
 27 46  1  0
 28 47  1  0
 29 48  1  0
M  END
