
     RDKit          3D

 37 39  0  0  0  0  0  0  0  0999 V2000
   -7.9494    0.7270    1.2470 Cl  0  0  0  0  0  0  0  0  0  0  0  0
   -6.3942    0.1664    0.7763 C   0  0  0  0  0  0  0  0  0  0  0  0
   -6.0443   -1.1606    0.9830 C   0  0  0  0  0  0  0  0  0  0  0  0
   -4.7758   -1.6227    0.6007 C   0  0  0  0  0  0  0  0  0  0  0  0
   -4.4787   -3.3000    0.9180 Cl  0  0  0  0  0  0  0  0  0  0  0  0
   -3.8287   -0.7635    0.0018 C   0  0  0  0  0  0  0  0  0  0  0  0
   -4.2265    0.5776   -0.1876 C   0  0  0  0  0  0  0  0  0  0  0  0
   -5.4909    1.0419    0.1917 C   0  0  0  0  0  0  0  0  0  0  0  0
   -3.3504    1.5000   -0.7665 N   0  0  0  0  0  0  0  0  0  0  0  0
   -2.0831    1.2060   -1.1843 C   0  0  0  0  0  0  0  0  0  0  0  0
   -1.3785    2.0938   -1.6573 O   0  0  0  0  0  0  0  0  0  0  0  0
   -1.6348   -0.2117   -1.0102 C   0  0  0  0  0  0  0  0  0  0  0  0
   -2.4547   -1.1255   -0.4523 C   0  0  0  0  0  0  0  0  0  0  0  0
   -2.0156   -2.4312   -0.2909 O   0  0  0  0  0  0  0  0  0  0  0  0
   -0.0412   -0.6146   -1.5925 S   0  0  0  0  0  0  0  0  0  0  0  0
    0.9693    0.2224   -0.3349 C   0  0  0  0  0  0  0  0  0  0  0  0
    2.4492   -0.0620   -0.5852 C   0  0  0  0  0  0  0  0  0  0  0  0
    3.3195    0.6428    0.4587 C   0  0  0  0  0  0  0  0  0  0  0  0
    4.7772    0.3793    0.2424 C   0  0  0  0  0  0  0  0  0  0  0  0
    5.5614    1.1686   -0.5761 C   0  0  0  0  0  0  0  0  0  0  0  0
    6.8717    0.9493   -0.7990 N   0  0  0  0  0  0  0  0  0  0  0  0
    7.3968   -0.1145   -0.1729 C   0  0  0  0  0  0  0  0  0  0  0  0
    6.7402   -0.9579    0.6378 N   0  0  0  0  0  0  0  0  0  0  0  0
    5.4335   -0.6884    0.8231 C   0  0  0  0  0  0  0  0  0  0  0  0
   -6.7593   -1.8403    1.4425 H   0  0  0  0  0  0  0  0  0  0  0  0
   -5.7722    2.0801    0.0336 H   0  0  0  0  0  0  0  0  0  0  0  0
   -3.6273    2.4646   -0.9028 H   0  0  0  0  0  0  0  0  0  0  0  0
   -2.7394   -2.9971    0.0255 H   0  0  0  0  0  0  0  0  0  0  0  0
    0.7866    1.3008   -0.3709 H   0  0  0  0  0  0  0  0  0  0  0  0
    0.6795   -0.1406    0.6573 H   0  0  0  0  0  0  0  0  0  0  0  0
    2.7346    0.2796   -1.5889 H   0  0  0  0  0  0  0  0  0  0  0  0
    2.6369   -1.1433   -0.5483 H   0  0  0  0  0  0  0  0  0  0  0  0
    3.0366    0.3156    1.4674 H   0  0  0  0  0  0  0  0  0  0  0  0
    3.1384    1.7250    0.4315 H   0  0  0  0  0  0  0  0  0  0  0  0
    5.1492    2.0292   -1.0963 H   0  0  0  0  0  0  0  0  0  0  0  0
    8.4502   -0.3114   -0.3381 H   0  0  0  0  0  0  0  0  0  0  0  0
    4.9142   -1.3848    1.4761 H   0  0  0  0  0  0  0  0  0  0  0  0
  1  2  1  0
  2  3  2  0
  3  4  1  0
  4  5  1  0
  4  6  2  0
  6  7  1  0
  7  8  2  0
  7  9  1  0
  9 10  1  0
 10 11  2  0
 10 12  1  0
 12 13  2  0
 13 14  1  0
 12 15  1  0
 15 16  1  0
 16 17  1  0
 17 18  1  0
 18 19  1  0
 19 20  2  0
 20 21  1  0
 21 22  2  0
 22 23  1  0
 23 24  2  0
  8  2  1  0
 24 19  1  0
 13  6  1  0
  3 25  1  0
  8 26  1  0
  9 27  1  0
 14 28  1  0
 16 29  1  0
 16 30  1  0
 17 31  1  0
 17 32  1  0
 18 33  1  0
 18 34  1  0
 20 35  1  0
 22 36  1  0
 24 37  1  0
M  END
