
     RDKit          3D

 68 72  0  0  0  0  0  0  0  0999 V2000
   -2.0050    6.7254   -1.5766 O   0  0  0  0  0  0  0  0  0  0  0  0
   -1.8114    5.3203   -1.4858 C   0  0  0  0  0  0  0  0  0  0  0  0
   -1.6762    4.8651   -0.0376 C   0  0  0  0  0  0  0  0  0  0  0  0
   -1.9464    5.6447    0.8865 O   0  0  0  0  0  0  0  0  0  0  0  0
   -1.1694    3.4387    0.2528 C   0  0  1  0  0  0  0  0  0  0  0  0
   -1.6280    3.1257    1.5771 O   0  0  0  0  0  0  0  0  0  0  0  0
   -1.7236    2.4174   -0.7406 C   0  0  0  0  0  0  0  0  0  0  0  0
   -1.1884    1.0001   -0.5057 C   0  0  2  0  0  0  0  0  0  0  0  0
   -1.7878    0.4327    0.6572 O   0  0  0  0  0  0  0  0  0  0  0  0
   -2.7906   -0.5331    0.3521 C   0  0  1  0  0  0  0  0  0  0  0  0
   -3.2617   -1.1330    1.6803 C   0  0  0  0  0  0  0  0  0  0  0  0
   -4.7015   -1.6541    1.6035 C   0  0  2  0  0  0  0  0  0  0  0  0
   -4.8641   -2.7962    2.5268 N   0  0  0  0  0  0  0  0  0  0  0  0
   -5.0491   -2.0797    0.1668 C   0  0  1  0  0  0  0  0  0  0  0  0
   -4.8598   -0.8810   -0.7892 C   0  0  1  0  0  0  0  0  0  0  0  0
   -3.8912    0.0719   -0.3215 O   0  0  0  0  0  0  0  0  0  0  0  0
   -4.5305   -1.2757   -2.2242 C   0  0  0  0  0  0  0  0  0  0  0  0
   -4.2097   -3.1888   -0.1850 O   0  0  0  0  0  0  0  0  0  0  0  0
    0.3154    0.9637   -0.3086 C   0  0  0  0  0  0  0  0  0  0  0  0
    1.0334    2.1105    0.0789 C   0  0  0  0  0  0  0  0  0  0  0  0
    0.3643    3.4611    0.2396 C   0  0  0  0  0  0  0  0  0  0  0  0
    2.4224    2.0122    0.2771 C   0  0  0  0  0  0  0  0  0  0  0  0
    3.0811    3.1715    0.6099 O   0  0  0  0  0  0  0  0  0  0  0  0
    3.1004    0.7896    0.1332 C   0  0  0  0  0  0  0  0  0  0  0  0
    2.3970   -0.3476   -0.2436 C   0  0  0  0  0  0  0  0  0  0  0  0
    1.0118   -0.2511   -0.4759 C   0  0  0  0  0  0  0  0  0  0  0  0
    0.2758   -1.3368   -0.8889 O   0  0  0  0  0  0  0  0  0  0  0  0
    3.1034   -1.6394   -0.4080 C   0  0  0  0  0  0  0  0  0  0  0  0
    2.4468   -2.5891   -0.8238 O   0  0  0  0  0  0  0  0  0  0  0  0
    4.5521   -1.7507   -0.0852 C   0  0  0  0  0  0  0  0  0  0  0  0
    5.2435   -0.5914    0.2779 C   0  0  0  0  0  0  0  0  0  0  0  0
    4.5519    0.7063    0.3686 C   0  0  0  0  0  0  0  0  0  0  0  0
    5.1770    1.7262    0.6494 O   0  0  0  0  0  0  0  0  0  0  0  0
    6.6126   -0.6377    0.5716 C   0  0  0  0  0  0  0  0  0  0  0  0
    7.2963   -1.8457    0.5073 C   0  0  0  0  0  0  0  0  0  0  0  0
    6.6153   -3.0108    0.1562 C   0  0  0  0  0  0  0  0  0  0  0  0
    5.2445   -2.9809   -0.1384 C   0  0  0  0  0  0  0  0  0  0  0  0
    4.5312   -4.0977   -0.4781 O   0  0  0  0  0  0  0  0  0  0  0  0
    5.1805   -5.3610   -0.4482 C   0  0  0  0  0  0  0  0  0  0  0  0
   -2.3948    7.0045   -0.7218 H   0  0  0  0  0  0  0  0  0  0  0  0
   -2.6763    4.8274   -1.9383 H   0  0  0  0  0  0  0  0  0  0  0  0
   -0.9043    5.0717   -2.0419 H   0  0  0  0  0  0  0  0  0  0  0  0
   -1.5580    3.9445    2.1073 H   0  0  0  0  0  0  0  0  0  0  0  0
   -2.8184    2.4136   -0.6796 H   0  0  0  0  0  0  0  0  0  0  0  0
   -1.4559    2.7108   -1.7635 H   0  0  0  0  0  0  0  0  0  0  0  0
   -1.4342    0.4136   -1.4021 H   0  0  0  0  0  0  0  0  0  0  0  0
   -2.3472   -1.3155   -0.2758 H   0  0  0  0  0  0  0  0  0  0  0  0
   -2.5516   -1.9213    1.9665 H   0  0  0  0  0  0  0  0  0  0  0  0
   -3.1981   -0.3896    2.4870 H   0  0  0  0  0  0  0  0  0  0  0  0
   -5.3862   -0.8553    1.9161 H   0  0  0  0  0  0  0  0  0  0  0  0
   -4.5673   -2.5090    3.4620 H   0  0  0  0  0  0  0  0  0  0  0  0
   -5.8563   -3.0229    2.6111 H   0  0  0  0  0  0  0  0  0  0  0  0
   -6.0820   -2.4406    0.0970 H   0  0  0  0  0  0  0  0  0  0  0  0
   -5.8038   -0.3225   -0.8053 H   0  0  0  0  0  0  0  0  0  0  0  0
   -4.4961   -0.3833   -2.8601 H   0  0  0  0  0  0  0  0  0  0  0  0
   -5.2803   -1.9618   -2.6288 H   0  0  0  0  0  0  0  0  0  0  0  0
   -3.5439   -1.7452   -2.3009 H   0  0  0  0  0  0  0  0  0  0  0  0
   -4.1325   -3.7090    0.6424 H   0  0  0  0  0  0  0  0  0  0  0  0
    0.7138    3.9160    1.1763 H   0  0  0  0  0  0  0  0  0  0  0  0
    0.7224    4.0905   -0.5853 H   0  0  0  0  0  0  0  0  0  0  0  0
    4.0364    2.9674    0.7318 H   0  0  0  0  0  0  0  0  0  0  0  0
    0.8756   -2.1153   -0.9606 H   0  0  0  0  0  0  0  0  0  0  0  0
    7.1512    0.2664    0.8514 H   0  0  0  0  0  0  0  0  0  0  0  0
    8.3600   -1.8817    0.7325 H   0  0  0  0  0  0  0  0  0  0  0  0
    7.1881   -3.9328    0.1187 H   0  0  0  0  0  0  0  0  0  0  0  0
    5.5654   -5.5860    0.5520 H   0  0  0  0  0  0  0  0  0  0  0  0
    4.4371   -6.1244   -0.6966 H   0  0  0  0  0  0  0  0  0  0  0  0
    5.9748   -5.4119   -1.1997 H   0  0  0  0  0  0  0  0  0  0  0  0
  1  2  1  0
  2  3  1  0
  3  4  2  0
  3  5  1  0
  5  6  1  1
  5  7  1  0
  7  8  1  0
  8  9  1  0
  9 10  1  0
 10 11  1  0
 11 12  1  0
 12 13  1  0
 12 14  1  0
 14 15  1  0
 15 16  1  0
 15 17  1  0
 14 18  1  0
  8 19  1  0
 19 20  2  0
 20 21  1  0
 20 22  1  0
 22 23  1  0
 22 24  2  0
 24 25  1  0
 25 26  2  0
 26 27  1  0
 25 28  1  0
 28 29  2  0
 28 30  1  0
 30 31  2  0
 31 32  1  0
 32 33  2  0
 31 34  1  0
 34 35  2  0
 35 36  1  0
 36 37  2  0
 37 38  1  0
 38 39  1  0
 21  5  1  0
 32 24  1  0
 16 10  1  0
 26 19  1  0
 37 30  1  0
  1 40  1  0
  2 41  1  0
  2 42  1  0
  6 43  1  0
  7 44  1  0
  7 45  1  0
  8 46  1  6
 10 47  1  6
 11 48  1  0
 11 49  1  0
 12 50  1  1
 13 51  1  0
 13 52  1  0
 14 53  1  1
 15 54  1  6
 17 55  1  0
 17 56  1  0
 17 57  1  0
 18 58  1  0
 21 59  1  0
 21 60  1  0
 23 61  1  0
 27 62  1  0
 34 63  1  0
 35 64  1  0
 36 65  1  0
 39 66  1  0
 39 67  1  0
 39 68  1  0
M  END
