
     RDKit          3D

 38 38  0  0  0  0  0  0  0  0999 V2000
   -2.0337    0.6251    2.7347 C   0  0  0  0  0  0  0  0  0  0  0  0
   -2.4030    1.6042    1.6256 C   0  0  0  0  0  0  0  0  0  0  0  0
   -2.0906    1.1234    0.2684 N   0  0  0  0  0  0  0  0  0  0  0  0
   -0.8114    0.5909    0.0537 C   0  0  0  0  0  0  0  0  0  0  0  0
   -0.7292   -0.7083   -0.3406 N   0  0  0  0  0  0  0  0  0  0  0  0
    0.4878   -1.2647   -0.5430 C   0  0  0  0  0  0  0  0  0  0  0  0
    0.4704   -2.6302   -0.8715 N   0  0  0  0  0  0  0  0  0  0  0  0
    1.6534   -0.5116   -0.3288 C   0  0  0  0  0  0  0  0  0  0  0  0
    1.6224    0.7940    0.0520 N   0  0  0  0  0  0  0  0  0  0  0  0
    0.3860    1.3154    0.2255 C   0  0  0  0  0  0  0  0  0  0  0  0
    0.4521    2.9999    0.5817 Cl  0  0  0  0  0  0  0  0  0  0  0  0
    3.0114   -1.1123   -0.5535 C   0  0  0  0  0  0  0  0  0  0  0  0
    3.1130   -2.2104   -1.1019 O   0  0  0  0  0  0  0  0  0  0  0  0
    4.0749   -0.3671   -0.0954 N   0  0  0  0  0  0  0  0  0  0  0  0
    5.2480   -0.5710   -0.5778 C   0  0  0  0  0  0  0  0  0  0  0  0
    5.6558   -1.4415   -1.5295 N   0  0  0  0  0  0  0  0  0  0  0  0
    6.2994    0.1597   -0.1423 N   0  0  0  0  0  0  0  0  0  0  0  0
   -3.1698    0.5271   -0.5506 C   0  0  0  0  0  0  0  0  0  0  0  0
   -4.1493    1.6234   -0.9852 C   0  0  0  0  0  0  0  0  0  0  0  0
   -3.9097   -0.6108    0.1511 C   0  0  0  0  0  0  0  0  0  0  0  0
   -2.4910   -0.3562    2.5823 H   0  0  0  0  0  0  0  0  0  0  0  0
   -0.9509    0.4841    2.8082 H   0  0  0  0  0  0  0  0  0  0  0  0
   -2.3786    1.0101    3.7000 H   0  0  0  0  0  0  0  0  0  0  0  0
   -3.4735    1.8218    1.7088 H   0  0  0  0  0  0  0  0  0  0  0  0
   -1.9132    2.5640    1.8125 H   0  0  0  0  0  0  0  0  0  0  0  0
    1.1387   -2.8017   -1.6263 H   0  0  0  0  0  0  0  0  0  0  0  0
    0.8219   -3.1706   -0.0842 H   0  0  0  0  0  0  0  0  0  0  0  0
    4.9462   -2.1507   -1.7207 H   0  0  0  0  0  0  0  0  0  0  0  0
    6.5370   -1.8833   -1.2943 H   0  0  0  0  0  0  0  0  0  0  0  0
    5.9780    0.9399    0.4239 H   0  0  0  0  0  0  0  0  0  0  0  0
    6.8805    0.4884   -0.9045 H   0  0  0  0  0  0  0  0  0  0  0  0
   -2.7503    0.1317   -1.4861 H   0  0  0  0  0  0  0  0  0  0  0  0
   -4.8831    1.2240   -1.6937 H   0  0  0  0  0  0  0  0  0  0  0  0
   -4.7019    2.0440   -0.1393 H   0  0  0  0  0  0  0  0  0  0  0  0
   -3.6178    2.4451   -1.4778 H   0  0  0  0  0  0  0  0  0  0  0  0
   -4.4549   -0.2614    1.0338 H   0  0  0  0  0  0  0  0  0  0  0  0
   -3.2231   -1.4005    0.4710 H   0  0  0  0  0  0  0  0  0  0  0  0
   -4.6418   -1.0638   -0.5264 H   0  0  0  0  0  0  0  0  0  0  0  0
  1  2  1  0
  2  3  1  0
  3  4  1  0
  4  5  2  0
  5  6  1  0
  6  7  1  0
  6  8  2  0
  8  9  1  0
  9 10  2  0
 10 11  1  0
  8 12  1  0
 12 13  2  0
 12 14  1  0
 14 15  2  3
 15 16  1  0
 15 17  1  0
  3 18  1  0
 18 19  1  0
 18 20  1  0
 10  4  1  0
  1 21  1  0
  1 22  1  0
  1 23  1  0
  2 24  1  0
  2 25  1  0
  7 26  1  0
  7 27  1  0
 16 28  1  0
 16 29  1  0
 17 30  1  0
 17 31  1  0
 18 32  1  0
 19 33  1  0
 19 34  1  0
 19 35  1  0
 20 36  1  0
 20 37  1  0
 20 38  1  0
M  END
