
     RDKit          3D

 72 74  0  0  0  0  0  0  0  0999 V2000
   -7.2450   -0.0813   -2.6237 C   0  0  0  0  0  0  0  0  0  0  0  0
   -6.1755    1.0121   -2.6507 C   0  0  0  0  0  0  0  0  0  0  0  0
   -4.7966    0.4822   -2.2168 C   0  0  0  0  0  0  0  0  0  0  0  0
   -4.6803    0.0608   -0.7458 C   0  0  0  0  0  0  0  0  0  0  0  0
   -3.3572   -0.6784   -0.5010 C   0  0  0  0  0  0  0  0  0  0  0  0
   -3.0494   -0.9417    0.9903 C   0  0  2  0  0  0  0  0  0  0  0  0
   -1.5995   -1.4337    1.2796 C   0  0  1  0  0  0  0  0  0  0  0  0
   -0.9509   -2.3585    0.2232 C   0  0  0  0  0  0  0  0  0  0  0  0
    0.5637   -2.1064    0.2910 C   0  0  0  0  0  0  0  0  0  0  0  0
    0.7616   -1.2288    1.5294 C   0  0  2  0  0  0  0  0  0  0  0  0
   -0.5184   -0.3468    1.5581 C   0  0  1  0  0  0  0  0  0  0  0  0
   -0.4935    0.7592    0.4749 C   0  0  0  0  0  0  0  0  0  0  0  0
   -0.6640    0.3222    2.9487 C   0  0  0  0  0  0  0  0  0  0  0  0
    0.6463    0.3634    3.7530 C   0  0  0  0  0  0  0  0  0  0  0  0
    1.9078    0.5643    2.9030 C   0  0  0  0  0  0  0  0  0  0  0  0
    1.9993   -0.3779    1.7109 C   0  0  0  0  0  0  0  0  0  0  0  0
    3.0283   -0.3704    0.8409 C   0  0  0  0  0  0  0  0  0  0  0  0
    4.1969    0.4804    0.9371 C   0  0  0  0  0  0  0  0  0  0  0  0
    5.0084    0.8740   -0.0663 C   0  0  0  0  0  0  0  0  0  0  0  0
    6.2651    1.6706    0.2454 C   0  0  0  0  0  0  0  0  0  0  0  0
    7.5411    0.9554   -0.2373 C   0  0  1  0  0  0  0  0  0  0  0  0
    8.1740    0.3002    0.8633 O   0  0  0  0  0  0  0  0  0  0  0  0
    7.2821   -0.0660   -1.3538 C   0  0  0  0  0  0  0  0  0  0  0  0
    6.1485    0.3869   -2.2700 C   0  0  0  0  0  0  0  0  0  0  0  0
    4.8566    0.5976   -1.4999 C   0  0  0  0  0  0  0  0  0  0  0  0
    3.6811    0.6120   -2.1489 C   0  0  0  0  0  0  0  0  0  0  0  0
   -4.0526   -1.9530    1.5660 C   0  0  0  0  0  0  0  0  0  0  0  0
   -6.6245    2.2192   -1.8307 C   0  0  0  0  0  0  0  0  0  0  0  0
   -6.9081   -0.9695   -3.1691 H   0  0  0  0  0  0  0  0  0  0  0  0
   -8.1646    0.2735   -3.1016 H   0  0  0  0  0  0  0  0  0  0  0  0
   -7.5001   -0.3811   -1.6017 H   0  0  0  0  0  0  0  0  0  0  0  0
   -6.0728    1.3409   -3.6935 H   0  0  0  0  0  0  0  0  0  0  0  0
   -4.0515    1.2659   -2.4135 H   0  0  0  0  0  0  0  0  0  0  0  0
   -4.5294   -0.3669   -2.8625 H   0  0  0  0  0  0  0  0  0  0  0  0
   -4.7291    0.9484   -0.1038 H   0  0  0  0  0  0  0  0  0  0  0  0
   -5.5159   -0.5889   -0.4775 H   0  0  0  0  0  0  0  0  0  0  0  0
   -3.3955   -1.6298   -1.0459 H   0  0  0  0  0  0  0  0  0  0  0  0
   -2.5540   -0.0925   -0.9527 H   0  0  0  0  0  0  0  0  0  0  0  0
   -3.2005   -0.0059    1.5423 H   0  0  0  0  0  0  0  0  0  0  0  0
   -1.6508   -2.0337    2.2034 H   0  0  0  0  0  0  0  0  0  0  0  0
   -1.2848   -2.1686   -0.7994 H   0  0  0  0  0  0  0  0  0  0  0  0
   -1.1840   -3.4046    0.4504 H   0  0  0  0  0  0  0  0  0  0  0  0
    1.1213   -3.0460    0.3650 H   0  0  0  0  0  0  0  0  0  0  0  0
    0.8900   -1.6055   -0.6287 H   0  0  0  0  0  0  0  0  0  0  0  0
    0.7419   -1.9229    2.3856 H   0  0  0  0  0  0  0  0  0  0  0  0
   -1.4032    1.3698    0.5113 H   0  0  0  0  0  0  0  0  0  0  0  0
   -0.3982    0.3492   -0.5344 H   0  0  0  0  0  0  0  0  0  0  0  0
    0.3438    1.4513    0.6151 H   0  0  0  0  0  0  0  0  0  0  0  0
   -1.0408    1.3451    2.8412 H   0  0  0  0  0  0  0  0  0  0  0  0
   -1.4149   -0.1990    3.5532 H   0  0  0  0  0  0  0  0  0  0  0  0
    0.7458   -0.5754    4.3140 H   0  0  0  0  0  0  0  0  0  0  0  0
    0.5811    1.1574    4.5085 H   0  0  0  0  0  0  0  0  0  0  0  0
    1.9197    1.5990    2.5389 H   0  0  0  0  0  0  0  0  0  0  0  0
    2.7809    0.4293    3.5532 H   0  0  0  0  0  0  0  0  0  0  0  0
    3.0085   -1.0271   -0.0247 H   0  0  0  0  0  0  0  0  0  0  0  0
    4.4524    0.7962    1.9466 H   0  0  0  0  0  0  0  0  0  0  0  0
    6.1754    2.6415   -0.2653 H   0  0  0  0  0  0  0  0  0  0  0  0
    6.3404    1.8944    1.3183 H   0  0  0  0  0  0  0  0  0  0  0  0
    8.2452    1.7147   -0.5971 H   0  0  0  0  0  0  0  0  0  0  0  0
    8.9107   -0.2296    0.5113 H   0  0  0  0  0  0  0  0  0  0  0  0
    8.2001   -0.2182   -1.9307 H   0  0  0  0  0  0  0  0  0  0  0  0
    7.0432   -1.0445   -0.9187 H   0  0  0  0  0  0  0  0  0  0  0  0
    6.0079   -0.3609   -3.0615 H   0  0  0  0  0  0  0  0  0  0  0  0
    6.4316    1.3313   -2.7574 H   0  0  0  0  0  0  0  0  0  0  0  0
    2.7383    0.8436   -1.6599 H   0  0  0  0  0  0  0  0  0  0  0  0
    3.6270    0.4379   -3.2183 H   0  0  0  0  0  0  0  0  0  0  0  0
   -3.9678   -2.9244    1.0718 H   0  0  0  0  0  0  0  0  0  0  0  0
   -5.0818   -1.6002    1.4617 H   0  0  0  0  0  0  0  0  0  0  0  0
   -3.8763   -2.1069    2.6365 H   0  0  0  0  0  0  0  0  0  0  0  0
   -6.7921    1.9553   -0.7812 H   0  0  0  0  0  0  0  0  0  0  0  0
   -5.8768    3.0187   -1.8679 H   0  0  0  0  0  0  0  0  0  0  0  0
   -7.5657    2.6217   -2.2244 H   0  0  0  0  0  0  0  0  0  0  0  0
  1  2  1  0
  2  3  1  0
  3  4  1  0
  4  5  1  0
  5  6  1  0
  6  7  1  0
  7  8  1  0
  8  9  1  0
  9 10  1  0
 10 11  1  0
 11 12  1  6
 11 13  1  0
 13 14  1  0
 14 15  1  0
 15 16  1  0
 16 17  2  0
 17 18  1  0
 18 19  2  0
 19 20  1  0
 20 21  1  0
 21 22  1  0
 21 23  1  0
 23 24  1  0
 24 25  1  0
 25 26  2  0
  6 27  1  0
  2 28  1  0
 11  7  1  0
 25 19  1  0
 16 10  1  0
  1 29  1  0
  1 30  1  0
  1 31  1  0
  2 32  1  0
  3 33  1  0
  3 34  1  0
  4 35  1  0
  4 36  1  0
  5 37  1  0
  5 38  1  0
  6 39  1  1
  7 40  1  1
  8 41  1  0
  8 42  1  0
  9 43  1  0
  9 44  1  0
 10 45  1  1
 12 46  1  0
 12 47  1  0
 12 48  1  0
 13 49  1  0
 13 50  1  0
 14 51  1  0
 14 52  1  0
 15 53  1  0
 15 54  1  0
 17 55  1  0
 18 56  1  0
 20 57  1  0
 20 58  1  0
 21 59  1  6
 22 60  1  0
 23 61  1  0
 23 62  1  0
 24 63  1  0
 24 64  1  0
 26 65  1  0
 26 66  1  0
 27 67  1  0
 27 68  1  0
 27 69  1  0
 28 70  1  0
 28 71  1  0
 28 72  1  0
M  END
