
     RDKit          3D

 68 73  0  0  0  0  0  0  0  0999 V2000
   -3.2778    0.6603   -2.8952 C   0  0  0  0  0  0  0  0  0  0  0  0
   -2.7319    0.4314   -1.5098 C   0  0  0  0  0  0  0  0  0  0  0  0
   -1.3287    0.5402   -1.3707 C   0  0  0  0  0  0  0  0  0  0  0  0
   -0.6691    0.2427   -0.1700 C   0  0  0  0  0  0  0  0  0  0  0  0
   -1.4466   -0.1659    0.9139 C   0  0  0  0  0  0  0  0  0  0  0  0
   -2.8395   -0.2474    0.8058 C   0  0  0  0  0  0  0  0  0  0  0  0
   -3.5132    0.0707   -0.3901 C   0  0  0  0  0  0  0  0  0  0  0  0
   -4.9378    0.0114   -0.4069 N   0  0  0  0  0  0  0  0  0  0  0  0
   -5.7548    0.9021   -1.0667 C   0  0  0  0  0  0  0  0  0  0  0  0
   -5.4687    1.9536   -1.6209 O   0  0  0  0  0  0  0  0  0  0  0  0
   -7.1674    0.3997   -0.9808 C   0  0  0  0  0  0  0  0  0  0  0  0
   -7.1317   -0.4698    0.2667 C   0  0  0  0  0  0  0  0  0  0  0  0
   -5.6795   -0.8837    0.3391 C   0  0  0  0  0  0  0  0  0  0  0  0
   -5.2863   -1.8472    0.9836 O   0  0  0  0  0  0  0  0  0  0  0  0
   -8.1178   -1.6321    0.2404 C   0  0  0  0  0  0  0  0  0  0  0  0
   -9.4345   -0.9937    0.6580 C   0  0  0  0  0  0  0  0  0  0  0  0
   -9.0542    0.0878    1.6662 C   0  0  0  0  0  0  0  0  0  0  0  0
   -7.5446    0.3015    1.5287 C   0  0  0  0  0  0  0  0  0  0  0  0
    0.7921    0.3355   -0.0679 C   0  0  0  0  0  0  0  0  0  0  0  0
    1.5669   -0.7874    0.2245 C   0  0  0  0  0  0  0  0  0  0  0  0
    2.9621   -0.6990    0.2848 C   0  0  0  0  0  0  0  0  0  0  0  0
    3.6392    0.5140    0.0580 C   0  0  0  0  0  0  0  0  0  0  0  0
    2.8617    1.6715   -0.1639 C   0  0  0  0  0  0  0  0  0  0  0  0
    1.4555    1.5556   -0.2546 C   0  0  0  0  0  0  0  0  0  0  0  0
    3.4189    3.0686   -0.2580 C   0  0  0  0  0  0  0  0  0  0  0  0
    5.0646    0.5078    0.0524 N   0  0  0  0  0  0  0  0  0  0  0  0
    5.8508    1.2355   -0.8115 C   0  0  0  0  0  0  0  0  0  0  0  0
    5.5279    1.9038   -1.7825 O   0  0  0  0  0  0  0  0  0  0  0  0
    7.2818    1.0640   -0.3937 C   0  0  0  0  0  0  0  0  0  0  0  0
    7.2652   -0.2784    0.3168 C   0  0  0  0  0  0  0  0  0  0  0  0
    5.8355   -0.3368    0.8263 C   0  0  0  0  0  0  0  0  0  0  0  0
    5.4804   -1.0542    1.7523 O   0  0  0  0  0  0  0  0  0  0  0  0
    7.5215   -1.4766   -0.6244 C   0  0  0  0  0  0  0  0  0  0  0  0
    8.7199   -2.2164   -0.0325 C   0  0  0  0  0  0  0  0  0  0  0  0
    8.6948   -1.8622    1.4433 C   0  0  0  0  0  0  0  0  0  0  0  0
    8.3055   -0.3905    1.4350 C   0  0  0  0  0  0  0  0  0  0  0  0
   -4.1892    0.0817   -3.0732 H   0  0  0  0  0  0  0  0  0  0  0  0
   -3.4634    1.7243   -3.0651 H   0  0  0  0  0  0  0  0  0  0  0  0
   -2.5602    0.3204   -3.6508 H   0  0  0  0  0  0  0  0  0  0  0  0
   -0.7331    0.8336   -2.2353 H   0  0  0  0  0  0  0  0  0  0  0  0
   -0.9775   -0.4080    1.8659 H   0  0  0  0  0  0  0  0  0  0  0  0
   -3.3889   -0.5385    1.6993 H   0  0  0  0  0  0  0  0  0  0  0  0
   -7.3808   -0.1722   -1.8900 H   0  0  0  0  0  0  0  0  0  0  0  0
   -7.8685    1.2352   -0.9019 H   0  0  0  0  0  0  0  0  0  0  0  0
   -7.8370   -2.4057    0.9655 H   0  0  0  0  0  0  0  0  0  0  0  0
   -8.1905   -2.1153   -0.7390 H   0  0  0  0  0  0  0  0  0  0  0  0
  -10.1313   -1.7237    1.0810 H   0  0  0  0  0  0  0  0  0  0  0  0
   -9.9226   -0.5362   -0.2105 H   0  0  0  0  0  0  0  0  0  0  0  0
   -9.6058    1.0120    1.4630 H   0  0  0  0  0  0  0  0  0  0  0  0
   -9.3011   -0.2223    2.6876 H   0  0  0  0  0  0  0  0  0  0  0  0
   -7.0400   -0.1022    2.4164 H   0  0  0  0  0  0  0  0  0  0  0  0
   -7.2952    1.3674    1.4822 H   0  0  0  0  0  0  0  0  0  0  0  0
    1.0936   -1.7552    0.3802 H   0  0  0  0  0  0  0  0  0  0  0  0
    3.5086   -1.6218    0.4717 H   0  0  0  0  0  0  0  0  0  0  0  0
    0.8625    2.4502   -0.4482 H   0  0  0  0  0  0  0  0  0  0  0  0
    3.5491    3.3626   -1.3036 H   0  0  0  0  0  0  0  0  0  0  0  0
    2.7338    3.7829    0.2131 H   0  0  0  0  0  0  0  0  0  0  0  0
    4.3646    3.1686    0.2828 H   0  0  0  0  0  0  0  0  0  0  0  0
    7.5422    1.8910    0.2765 H   0  0  0  0  0  0  0  0  0  0  0  0
    7.9465    1.0776   -1.2624 H   0  0  0  0  0  0  0  0  0  0  0  0
    7.7336   -1.1780   -1.6569 H   0  0  0  0  0  0  0  0  0  0  0  0
    6.6583   -2.1536   -0.6571 H   0  0  0  0  0  0  0  0  0  0  0  0
    8.6661   -3.2956   -0.2031 H   0  0  0  0  0  0  0  0  0  0  0  0
    9.6455   -1.8478   -0.4913 H   0  0  0  0  0  0  0  0  0  0  0  0
    7.9380   -2.4577    1.9668 H   0  0  0  0  0  0  0  0  0  0  0  0
    9.6605   -2.0330    1.9275 H   0  0  0  0  0  0  0  0  0  0  0  0
    9.1906    0.2141    1.2002 H   0  0  0  0  0  0  0  0  0  0  0  0
    7.9311   -0.0710    2.4130 H   0  0  0  0  0  0  0  0  0  0  0  0
  1  2  1  0
  2  3  2  0
  3  4  1  0
  4  5  2  0
  5  6  1  0
  6  7  2  0
  7  8  1  0
  8  9  1  0
  9 10  2  0
  9 11  1  0
 11 12  1  0
 12 13  1  0
 13 14  2  0
 12 15  1  0
 15 16  1  0
 16 17  1  0
 17 18  1  0
  4 19  1  0
 19 20  2  0
 20 21  1  0
 21 22  2  0
 22 23  1  0
 23 24  2  0
 23 25  1  0
 22 26  1  0
 26 27  1  0
 27 28  2  0
 27 29  1  0
 29 30  1  0
 30 31  1  0
 31 32  2  0
 30 33  1  0
 33 34  1  0
 34 35  1  0
 35 36  1  0
  7  2  1  0
 13  8  1  0
 24 19  1  0
 31 26  1  0
 18 12  1  0
 36 30  1  0
  1 37  1  0
  1 38  1  0
  1 39  1  0
  3 40  1  0
  5 41  1  0
  6 42  1  0
 11 43  1  0
 11 44  1  0
 15 45  1  0
 15 46  1  0
 16 47  1  0
 16 48  1  0
 17 49  1  0
 17 50  1  0
 18 51  1  0
 18 52  1  0
 20 53  1  0
 21 54  1  0
 24 55  1  0
 25 56  1  0
 25 57  1  0
 25 58  1  0
 29 59  1  0
 29 60  1  0
 33 61  1  0
 33 62  1  0
 34 63  1  0
 34 64  1  0
 35 65  1  0
 35 66  1  0
 36 67  1  0
 36 68  1  0
M  END
