
     RDKit          3D

 75 80  0  0  0  0  0  0  0  0999 V2000
   -1.2541    6.2399   -2.1861 C   0  0  0  0  0  0  0  0  0  0  0  0
   -0.4805    5.0864   -1.8501 O   0  0  0  0  0  0  0  0  0  0  0  0
   -1.1912    3.9315   -1.8284 C   0  0  0  0  0  0  0  0  0  0  0  0
   -2.3931    3.8423   -2.0410 O   0  0  0  0  0  0  0  0  0  0  0  0
   -0.3507    2.7459   -1.4907 C   0  0  0  0  0  0  0  0  0  0  0  0
    0.9974    2.7630   -1.3605 C   0  0  0  0  0  0  0  0  0  0  0  0
    1.7752    3.8935   -1.0809 N   0  0  0  0  0  0  0  0  0  0  0  0
    2.4641    3.5529    0.1130 C   0  0  0  0  0  0  0  0  0  0  0  0
    2.4491    2.1489    0.3270 C   0  0  0  0  0  0  0  0  0  0  0  0
    1.7998    1.5171   -0.8974 C   0  0  1  0  0  0  0  0  0  0  0  0
    0.9204    0.2565   -0.9355 C   0  0  2  0  0  0  0  0  0  0  0  0
   -0.3936    0.5052   -0.1851 C   0  0  0  0  0  0  0  0  0  0  0  0
   -1.1700    1.5315   -1.0655 C   0  0  0  0  0  0  0  0  0  0  0  0
   -1.1962   -0.7758    0.0979 C   0  0  0  0  0  0  0  0  0  0  0  0
   -2.5352   -0.6679    0.8750 C   0  0  1  0  0  0  0  0  0  0  0  0
   -2.3610    0.1592    2.1677 C   0  0  0  0  0  0  0  0  0  0  0  0
   -3.5386    0.1307    3.1330 C   0  0  0  0  0  0  0  0  0  0  0  0
   -3.6978   -0.1908    0.0044 C   0  0  0  0  0  0  0  0  0  0  0  0
   -4.7908   -1.0477    0.3275 O   0  0  0  0  0  0  0  0  0  0  0  0
   -4.1865   -2.2843    0.7011 C   0  0  0  0  0  0  0  0  0  0  0  0
   -2.8877   -2.0221    1.2400 O   0  0  0  0  0  0  0  0  0  0  0  0
   -5.0521   -2.9674    1.7509 C   0  0  0  0  0  0  0  0  0  0  0  0
   -4.0402   -3.1857   -0.5260 C   0  0  0  0  0  0  0  0  0  0  0  0
    1.9095   -0.8722   -0.6518 C   0  0  0  0  0  0  0  0  0  0  0  0
    3.1848   -0.3267   -1.3437 C   0  0  0  0  0  0  0  0  0  0  0  0
    2.8958    1.0583   -1.7763 N   0  0  0  0  0  0  0  0  0  0  0  0
    1.5179   -2.2438   -1.2286 C   0  0  0  0  0  0  0  0  0  0  0  0
    2.4520   -3.3450   -0.7829 C   0  0  0  0  0  0  0  0  0  0  0  0
    3.4013   -3.8811   -1.6624 C   0  0  0  0  0  0  0  0  0  0  0  0
    4.2653   -4.8926   -1.2392 C   0  0  0  0  0  0  0  0  0  0  0  0
    4.1874   -5.3788    0.0646 C   0  0  0  0  0  0  0  0  0  0  0  0
    3.2447   -4.8553    0.9467 C   0  0  0  0  0  0  0  0  0  0  0  0
    2.3803   -3.8438    0.5258 C   0  0  0  0  0  0  0  0  0  0  0  0
    3.0278    1.6144    1.4654 C   0  0  0  0  0  0  0  0  0  0  0  0
    3.6421    2.4892    2.3690 C   0  0  0  0  0  0  0  0  0  0  0  0
    3.6856    3.8735    2.1257 C   0  0  0  0  0  0  0  0  0  0  0  0
    3.0990    4.4173    0.9813 C   0  0  0  0  0  0  0  0  0  0  0  0
   -0.5924    7.1103   -2.1584 H   0  0  0  0  0  0  0  0  0  0  0  0
   -1.6609    6.1454   -3.1979 H   0  0  0  0  0  0  0  0  0  0  0  0
   -2.0560    6.3919   -1.4564 H   0  0  0  0  0  0  0  0  0  0  0  0
    1.2590    4.7689   -1.0190 H   0  0  0  0  0  0  0  0  0  0  0  0
    0.6095    0.0837   -1.9838 H   0  0  0  0  0  0  0  0  0  0  0  0
   -0.1569    0.9716    0.7793 H   0  0  0  0  0  0  0  0  0  0  0  0
   -2.0273    1.8832   -0.4824 H   0  0  0  0  0  0  0  0  0  0  0  0
   -1.5607    1.0409   -1.9659 H   0  0  0  0  0  0  0  0  0  0  0  0
   -1.3811   -1.3053   -0.8459 H   0  0  0  0  0  0  0  0  0  0  0  0
   -0.5514   -1.4461    0.6827 H   0  0  0  0  0  0  0  0  0  0  0  0
   -1.4866   -0.2146    2.7159 H   0  0  0  0  0  0  0  0  0  0  0  0
   -2.1574    1.2060    1.9147 H   0  0  0  0  0  0  0  0  0  0  0  0
   -3.6834   -0.8703    3.5476 H   0  0  0  0  0  0  0  0  0  0  0  0
   -3.3451    0.8053    3.9736 H   0  0  0  0  0  0  0  0  0  0  0  0
   -4.4663    0.4551    2.6543 H   0  0  0  0  0  0  0  0  0  0  0  0
   -3.9852    0.8493    0.1829 H   0  0  0  0  0  0  0  0  0  0  0  0
   -3.4949   -0.3030   -1.0660 H   0  0  0  0  0  0  0  0  0  0  0  0
   -4.5856   -3.8892    2.1138 H   0  0  0  0  0  0  0  0  0  0  0  0
   -5.2025   -2.3163    2.6176 H   0  0  0  0  0  0  0  0  0  0  0  0
   -6.0466   -3.1993    1.3548 H   0  0  0  0  0  0  0  0  0  0  0  0
   -3.5705   -4.1391   -0.2609 H   0  0  0  0  0  0  0  0  0  0  0  0
   -5.0122   -3.3803   -0.9921 H   0  0  0  0  0  0  0  0  0  0  0  0
   -3.4060   -2.7210   -1.2885 H   0  0  0  0  0  0  0  0  0  0  0  0
    2.0680   -0.9554    0.4281 H   0  0  0  0  0  0  0  0  0  0  0  0
    4.0284   -0.3340   -0.6449 H   0  0  0  0  0  0  0  0  0  0  0  0
    3.4863   -0.9113   -2.2187 H   0  0  0  0  0  0  0  0  0  0  0  0
    2.5560    1.0562   -2.7357 H   0  0  0  0  0  0  0  0  0  0  0  0
    0.5100   -2.5360   -0.9236 H   0  0  0  0  0  0  0  0  0  0  0  0
    1.4849   -2.2014   -2.3251 H   0  0  0  0  0  0  0  0  0  0  0  0
    3.4764   -3.5161   -2.6842 H   0  0  0  0  0  0  0  0  0  0  0  0
    4.9994   -5.3028   -1.9279 H   0  0  0  0  0  0  0  0  0  0  0  0
    4.8602   -6.1671    0.3923 H   0  0  0  0  0  0  0  0  0  0  0  0
    3.1808   -5.2362    1.9627 H   0  0  0  0  0  0  0  0  0  0  0  0
    1.6464   -3.4490    1.2253 H   0  0  0  0  0  0  0  0  0  0  0  0
    3.0472    0.5495    1.6569 H   0  0  0  0  0  0  0  0  0  0  0  0
    4.1154    2.0902    3.2639 H   0  0  0  0  0  0  0  0  0  0  0  0
    4.1880    4.5264    2.8356 H   0  0  0  0  0  0  0  0  0  0  0  0
    3.1333    5.4833    0.7912 H   0  0  0  0  0  0  0  0  0  0  0  0
  1  2  1  0
  2  3  1  0
  3  4  2  0
  3  5  1  0
  5  6  2  0
  6  7  1  0
  7  8  1  0
  8  9  2  0
  9 10  1  0
 10 11  1  0
 11 12  1  0
 12 13  1  0
 12 14  1  0
 15 14  1  6
 15 16  1  0
 16 17  1  0
 15 18  1  0
 18 19  1  0
 19 20  1  0
 20 21  1  0
 20 22  1  0
 20 23  1  0
 11 24  1  0
 24 25  1  0
 25 26  1  0
 24 27  1  0
 27 28  1  0
 28 29  2  0
 29 30  1  0
 30 31  2  0
 31 32  1  0
 32 33  2  0
  9 34  1  0
 34 35  2  0
 35 36  1  0
 36 37  2  0
 13  5  1  0
 21 15  1  0
 33 28  1  0
 10  6  1  0
 37  8  1  0
 10 26  1  6
  1 38  1  0
  1 39  1  0
  1 40  1  0
  7 41  1  0
 11 42  1  6
 12 43  1  0
 13 44  1  0
 13 45  1  0
 14 46  1  0
 14 47  1  0
 16 48  1  0
 16 49  1  0
 17 50  1  0
 17 51  1  0
 17 52  1  0
 18 53  1  0
 18 54  1  0
 22 55  1  0
 22 56  1  0
 22 57  1  0
 23 58  1  0
 23 59  1  0
 23 60  1  0
 24 61  1  0
 25 62  1  0
 25 63  1  0
 26 64  1  0
 27 65  1  0
 27 66  1  0
 29 67  1  0
 30 68  1  0
 31 69  1  0
 32 70  1  0
 33 71  1  0
 34 72  1  0
 35 73  1  0
 36 74  1  0
 37 75  1  0
M  END
