
     RDKit          3D

 43 44  0  0  0  0  0  0  0  0999 V2000
   -3.8058    1.9427    1.9813 C   0  0  0  0  0  0  0  0  0  0  0  0
   -2.3942    1.9003    1.7687 O   0  0  0  0  0  0  0  0  0  0  0  0
   -2.0402    1.5657    0.5036 C   0  0  0  0  0  0  0  0  0  0  0  0
   -2.8065    1.2801   -0.4034 O   0  0  0  0  0  0  0  0  0  0  0  0
   -0.5690    1.4729    0.3714 C   0  0  0  0  0  0  0  0  0  0  0  0
    0.3037    2.3729    0.8810 C   0  0  0  0  0  0  0  0  0  0  0  0
   -0.0896    3.6285    1.6173 C   0  0  0  0  0  0  0  0  0  0  0  0
    1.6667    2.1893    0.6886 N   0  0  0  0  0  0  0  0  0  0  0  0
    2.2076    1.2532   -0.1821 C   0  0  0  0  0  0  0  0  0  0  0  0
    1.4034    0.3233   -0.7435 C   0  0  0  0  0  0  0  0  0  0  0  0
   -0.0889    0.2602   -0.4366 C   0  0  0  0  0  0  0  0  0  0  0  0
   -0.4759   -1.0384    0.2878 C   0  0  0  0  0  0  0  0  0  0  0  0
    0.0399   -1.2796    1.5805 C   0  0  0  0  0  0  0  0  0  0  0  0
   -0.3122   -2.4217    2.3058 C   0  0  0  0  0  0  0  0  0  0  0  0
   -1.1894   -3.3560    1.7637 C   0  0  0  0  0  0  0  0  0  0  0  0
   -1.7113   -3.1551    0.4886 C   0  0  0  0  0  0  0  0  0  0  0  0
   -1.3517   -2.0091   -0.2419 C   0  0  0  0  0  0  0  0  0  0  0  0
   -1.9086   -1.8993   -1.5859 N   0  0  0  0  0  4  0  0  0  0  0  0
   -3.1291   -2.0691   -1.7086 O   0  0  0  0  0  0  0  0  0  0  0  0
   -1.1146   -1.7007   -2.5156 O   0  0  0  0  0  1  0  0  0  0  0  0
    1.9249   -0.5743   -1.7919 C   0  0  0  0  0  0  0  0  0  0  0  0
    2.3745   -0.1833   -2.8578 O   0  0  0  0  0  0  0  0  0  0  0  0
    1.8603   -1.8566   -1.3627 O   0  0  0  0  0  0  0  0  0  0  0  0
    2.3297   -2.8143   -2.3102 C   0  0  0  0  0  0  0  0  0  0  0  0
    3.6881    1.3766   -0.4413 C   0  0  0  0  0  0  0  0  0  0  0  0
   -4.2372    0.9451    1.8649 H   0  0  0  0  0  0  0  0  0  0  0  0
   -3.9839    2.2805    3.0036 H   0  0  0  0  0  0  0  0  0  0  0  0
   -4.2791    2.6532    1.2974 H   0  0  0  0  0  0  0  0  0  0  0  0
   -1.0881    3.9826    1.3450 H   0  0  0  0  0  0  0  0  0  0  0  0
    0.5999    4.4479    1.3801 H   0  0  0  0  0  0  0  0  0  0  0  0
   -0.0541    3.4587    2.6983 H   0  0  0  0  0  0  0  0  0  0  0  0
    2.2799    2.9497    0.9763 H   0  0  0  0  0  0  0  0  0  0  0  0
   -0.5983    0.3374   -1.4030 H   0  0  0  0  0  0  0  0  0  0  0  0
    0.7255   -0.5675    2.0402 H   0  0  0  0  0  0  0  0  0  0  0  0
    0.1004   -2.5782    3.3004 H   0  0  0  0  0  0  0  0  0  0  0  0
   -1.4617   -4.2417    2.3326 H   0  0  0  0  0  0  0  0  0  0  0  0
   -2.3907   -3.8939    0.0674 H   0  0  0  0  0  0  0  0  0  0  0  0
    1.5831   -2.9525   -3.0986 H   0  0  0  0  0  0  0  0  0  0  0  0
    2.4641   -3.7659   -1.7883 H   0  0  0  0  0  0  0  0  0  0  0  0
    3.2951   -2.5185   -2.7394 H   0  0  0  0  0  0  0  0  0  0  0  0
    3.8976    2.2983   -0.9955 H   0  0  0  0  0  0  0  0  0  0  0  0
    4.1045    0.5394   -1.0059 H   0  0  0  0  0  0  0  0  0  0  0  0
    4.2310    1.4175    0.5092 H   0  0  0  0  0  0  0  0  0  0  0  0
  1  2  1  0
  2  3  1  0
  3  4  2  0
  3  5  1  0
  5  6  2  0
  6  7  1  0
  6  8  1  0
  8  9  1  0
  9 10  2  0
 10 11  1  0
 11 12  1  0
 12 13  2  0
 13 14  1  0
 14 15  2  0
 15 16  1  0
 16 17  2  0
 17 18  1  0
 18 19  2  0
 18 20  1  0
 10 21  1  0
 21 22  2  0
 21 23  1  0
 23 24  1  0
  9 25  1  0
 11  5  1  0
 17 12  1  0
  1 26  1  0
  1 27  1  0
  1 28  1  0
  7 29  1  0
  7 30  1  0
  7 31  1  0
  8 32  1  0
 11 33  1  0
 13 34  1  0
 14 35  1  0
 15 36  1  0
 16 37  1  0
 24 38  1  0
 24 39  1  0
 24 40  1  0
 25 41  1  0
 25 42  1  0
 25 43  1  0
M  CHG  2  18   1  20  -1
M  END
