
     RDKit          3D

109113  0  0  0  0  0  0  0  0999 V2000
   -6.3313    3.8106   -0.1654 C   0  0  0  0  0  0  0  0  0  0  0  0
   -6.8811    2.5393   -0.4960 O   0  0  0  0  0  0  0  0  0  0  0  0
   -7.3364    1.7901    0.6431 C   0  0  2  0  0  0  0  0  0  0  0  0
   -6.2860    0.6992    1.0403 C   0  0  1  0  0  0  0  0  0  0  0  0
   -5.3417    0.2594   -0.1110 C   0  0  1  0  0  0  0  0  0  0  0  0
   -4.3393   -0.6316    0.4015 O   0  0  0  0  0  0  0  0  0  0  0  0
   -3.2269   -0.8155   -0.4828 C   0  0  2  0  0  0  0  0  0  0  0  0
   -2.7853   -2.2726   -0.3463 C   0  0  0  0  0  0  0  0  0  0  0  0
   -1.7688   -2.1992    0.7688 C   0  0  0  0  0  0  0  0  0  0  0  0
   -1.0970   -0.8471    0.5175 C   0  0  1  0  0  0  0  0  0  0  0  0
   -2.1365    0.0013   -0.0186 O   0  0  0  0  0  0  0  0  0  0  0  0
   -0.6049   -0.2486    1.8340 C   0  0  0  0  0  0  0  0  0  0  0  0
    0.0224   -0.9546   -0.5483 C   0  0  1  0  0  0  0  0  0  0  0  0
    0.7143    0.3419   -0.9219 C   0  0  0  0  0  0  0  0  0  0  0  0
    1.8861   -0.1903   -1.7125 C   0  0  0  0  0  0  0  0  0  0  0  0
    2.2620   -1.4975   -0.9551 C   0  0  1  0  0  0  0  0  0  0  0  0
    1.0944   -1.8314   -0.1628 O   0  0  0  0  0  0  0  0  0  0  0  0
    2.4901   -2.5790   -2.0408 C   0  0  0  0  0  0  0  0  0  0  0  0
    2.8519   -3.9753   -1.5674 C   0  0  0  0  0  0  0  0  0  0  0  0
    3.4692   -1.1971   -0.0219 C   0  0  2  0  0  0  0  0  0  0  0  0
    4.7200   -1.5182   -0.6514 O   0  0  0  0  0  0  0  0  0  0  0  0
    5.7444   -1.4859    0.3724 C   0  0  2  0  0  0  0  0  0  0  0  0
    5.0221   -1.4294    1.7255 C   0  0  0  0  0  0  0  0  0  0  0  0
    3.5672   -1.7615    1.3999 C   0  0  2  0  0  0  0  0  0  0  0  0
    3.3061   -3.2488    1.5915 C   0  0  0  0  0  0  0  0  0  0  0  0
    6.6699   -0.2842    0.0763 C   0  0  1  0  0  0  0  0  0  0  0  0
    5.9052    0.9180    0.2803 O   0  0  0  0  0  0  0  0  0  0  0  0
    6.5533    2.1200   -0.1261 C   0  0  1  0  0  0  0  0  0  0  0  0
    6.7849    2.0544   -1.5299 O   0  0  0  0  0  0  0  0  0  0  0  0
    5.5655    3.2863    0.1466 C   0  0  0  0  0  0  0  0  0  0  0  0
    4.4162    3.2074   -0.7150 O   0  0  0  0  0  0  0  0  0  0  0  0
    7.8819    2.2951    0.6460 C   0  0  1  0  0  0  0  0  0  0  0  0
    8.7435    1.0273    0.5424 C   0  0  0  0  0  0  0  0  0  0  0  0
    7.9426   -0.2237    0.9386 C   0  0  2  0  0  0  0  0  0  0  0  0
    8.8245   -1.4608    0.7887 C   0  0  0  0  0  0  0  0  0  0  0  0
    8.7080    3.4960    0.1807 C   0  0  0  0  0  0  0  0  0  0  0  0
   -3.5302   -0.4313   -1.9359 C   0  0  0  0  0  0  0  0  0  0  0  0
   -4.9285   -0.8760   -2.3384 C   0  0  1  0  0  0  0  0  0  0  0  0
   -6.0109   -0.4552   -1.3113 C   0  0  1  0  0  0  0  0  0  0  0  0
   -6.7862   -1.7191   -0.8996 C   0  0  0  0  0  0  0  0  0  0  0  0
   -5.2412   -0.3351   -3.6258 O   0  0  0  0  0  0  0  0  0  0  0  0
   -5.4381    1.2241    2.2191 C   0  0  0  0  0  0  0  0  0  0  0  0
   -8.7336    1.2237    0.3023 C   0  0  1  0  0  0  0  0  0  0  0  0
   -9.3628    0.5862    1.5251 C   0  0  0  0  0  0  0  0  0  0  0  0
   -9.4549   -0.6229    1.6826 O   0  0  0  0  0  0  0  0  0  0  0  0
   -9.7879    1.4540    2.4663 O   0  0  0  0  0  0  0  0  0  0  0  0
   -9.6790    2.2688   -0.2996 C   0  0  0  0  0  0  0  0  0  0  0  0
   -5.9882    4.2871   -1.0885 H   0  0  0  0  0  0  0  0  0  0  0  0
   -7.0989    4.4501    0.2879 H   0  0  0  0  0  0  0  0  0  0  0  0
   -5.4792    3.7090    0.5112 H   0  0  0  0  0  0  0  0  0  0  0  0
   -7.4717    2.4753    1.4920 H   0  0  0  0  0  0  0  0  0  0  0  0
   -6.7966   -0.1816    1.4476 H   0  0  0  0  0  0  0  0  0  0  0  0
   -4.8374    1.1727   -0.4584 H   0  0  0  0  0  0  0  0  0  0  0  0
   -2.3027   -2.6389   -1.2596 H   0  0  0  0  0  0  0  0  0  0  0  0
   -3.6083   -2.9543   -0.1086 H   0  0  0  0  0  0  0  0  0  0  0  0
   -2.3023   -2.1980    1.7268 H   0  0  0  0  0  0  0  0  0  0  0  0
   -1.0770   -3.0467    0.7704 H   0  0  0  0  0  0  0  0  0  0  0  0
   -1.4217   -0.1872    2.5609 H   0  0  0  0  0  0  0  0  0  0  0  0
   -0.2590    0.7812    1.7037 H   0  0  0  0  0  0  0  0  0  0  0  0
    0.2040   -0.8428    2.2695 H   0  0  0  0  0  0  0  0  0  0  0  0
   -0.4115   -1.3717   -1.4689 H   0  0  0  0  0  0  0  0  0  0  0  0
    1.0877    0.8746   -0.0436 H   0  0  0  0  0  0  0  0  0  0  0  0
    0.0802    1.0181   -1.4973 H   0  0  0  0  0  0  0  0  0  0  0  0
    2.7096    0.5269   -1.7958 H   0  0  0  0  0  0  0  0  0  0  0  0
    1.5523   -0.4019   -2.7349 H   0  0  0  0  0  0  0  0  0  0  0  0
    1.5632   -2.6859   -2.6212 H   0  0  0  0  0  0  0  0  0  0  0  0
    3.2592   -2.2432   -2.7456 H   0  0  0  0  0  0  0  0  0  0  0  0
    3.8556   -4.0057   -1.1393 H   0  0  0  0  0  0  0  0  0  0  0  0
    2.1341   -4.3567   -0.8395 H   0  0  0  0  0  0  0  0  0  0  0  0
    2.8509   -4.6642   -2.4167 H   0  0  0  0  0  0  0  0  0  0  0  0
    3.4821   -0.1058    0.1239 H   0  0  0  0  0  0  0  0  0  0  0  0
    6.2929   -2.4281    0.2704 H   0  0  0  0  0  0  0  0  0  0  0  0
    5.4755   -2.1101    2.4556 H   0  0  0  0  0  0  0  0  0  0  0  0
    5.0727   -0.4276    2.1653 H   0  0  0  0  0  0  0  0  0  0  0  0
    2.8929   -1.2150    2.0674 H   0  0  0  0  0  0  0  0  0  0  0  0
    4.0169   -3.8683    1.0369 H   0  0  0  0  0  0  0  0  0  0  0  0
    2.2895   -3.5146    1.2981 H   0  0  0  0  0  0  0  0  0  0  0  0
    3.4089   -3.5130    2.6509 H   0  0  0  0  0  0  0  0  0  0  0  0
    6.9421   -0.3377   -0.9864 H   0  0  0  0  0  0  0  0  0  0  0  0
    5.8948    1.8690   -1.8807 H   0  0  0  0  0  0  0  0  0  0  0  0
    6.0180    4.2654   -0.0333 H   0  0  0  0  0  0  0  0  0  0  0  0
    5.1989    3.2473    1.1788 H   0  0  0  0  0  0  0  0  0  0  0  0
    4.6757    3.6082   -1.5631 H   0  0  0  0  0  0  0  0  0  0  0  0
    7.6420    2.4316    1.7107 H   0  0  0  0  0  0  0  0  0  0  0  0
    9.6232    1.1238    1.1921 H   0  0  0  0  0  0  0  0  0  0  0  0
    9.1230    0.9186   -0.4825 H   0  0  0  0  0  0  0  0  0  0  0  0
    7.6610   -0.1197    1.9969 H   0  0  0  0  0  0  0  0  0  0  0  0
    9.0739   -1.6477   -0.2619 H   0  0  0  0  0  0  0  0  0  0  0  0
    8.3334   -2.3520    1.1911 H   0  0  0  0  0  0  0  0  0  0  0  0
    9.7612   -1.3356    1.3418 H   0  0  0  0  0  0  0  0  0  0  0  0
    8.1813    4.4362    0.3723 H   0  0  0  0  0  0  0  0  0  0  0  0
    8.9348    3.4390   -0.8897 H   0  0  0  0  0  0  0  0  0  0  0  0
    9.6591    3.5446    0.7230 H   0  0  0  0  0  0  0  0  0  0  0  0
   -3.4352    0.6553   -2.0693 H   0  0  0  0  0  0  0  0  0  0  0  0
   -2.7799   -0.8416   -2.6261 H   0  0  0  0  0  0  0  0  0  0  0  0
   -4.9183   -1.9643   -2.4679 H   0  0  0  0  0  0  0  0  0  0  0  0
   -6.7224    0.2250   -1.7909 H   0  0  0  0  0  0  0  0  0  0  0  0
   -7.5786   -1.5017   -0.1776 H   0  0  0  0  0  0  0  0  0  0  0  0
   -6.1243   -2.4678   -0.4501 H   0  0  0  0  0  0  0  0  0  0  0  0
   -7.2641   -2.1754   -1.7772 H   0  0  0  0  0  0  0  0  0  0  0  0
   -5.3761    0.6231   -3.5267 H   0  0  0  0  0  0  0  0  0  0  0  0
   -4.8072    0.4314    2.6359 H   0  0  0  0  0  0  0  0  0  0  0  0
   -4.7859    2.0502    1.9174 H   0  0  0  0  0  0  0  0  0  0  0  0
   -6.0796    1.5765    3.0350 H   0  0  0  0  0  0  0  0  0  0  0  0
   -8.6455    0.4436   -0.4573 H   0  0  0  0  0  0  0  0  0  0  0  0
   -9.6708    2.3996    2.2677 H   0  0  0  0  0  0  0  0  0  0  0  0
   -9.6633    3.2039    0.2690 H   0  0  0  0  0  0  0  0  0  0  0  0
   -9.3912    2.5047   -1.3293 H   0  0  0  0  0  0  0  0  0  0  0  0
  -10.7108    1.9019   -0.3165 H   0  0  0  0  0  0  0  0  0  0  0  0
  1  2  1  0
  2  3  1  0
  3  4  1  0
  4  5  1  0
  5  6  1  0
  7  6  1  1
  7  8  1  0
  8  9  1  0
  9 10  1  0
 10 11  1  0
 10 12  1  1
 10 13  1  0
 13 14  1  0
 14 15  1  0
 15 16  1  0
 16 17  1  0
 16 18  1  6
 18 19  1  0
 16 20  1  0
 20 21  1  0
 21 22  1  0
 22 23  1  0
 23 24  1  0
 24 25  1  0
 22 26  1  0
 26 27  1  0
 27 28  1  0
 28 29  1  6
 28 30  1  0
 30 31  1  0
 28 32  1  0
 32 33  1  0
 33 34  1  0
 34 35  1  0
 32 36  1  0
  7 37  1  0
 37 38  1  0
 38 39  1  0
 39 40  1  0
 38 41  1  0
  4 42  1  0
  3 43  1  0
 43 44  1  0
 44 45  2  0
 44 46  1  0
 43 47  1  0
 39  5  1  0
 11  7  1  0
 17 13  1  0
 24 20  1  0
 34 26  1  0
  1 48  1  0
  1 49  1  0
  1 50  1  0
  3 51  1  1
  4 52  1  1
  5 53  1  6
  8 54  1  0
  8 55  1  0
  9 56  1  0
  9 57  1  0
 12 58  1  0
 12 59  1  0
 12 60  1  0
 13 61  1  6
 14 62  1  0
 14 63  1  0
 15 64  1  0
 15 65  1  0
 18 66  1  0
 18 67  1  0
 19 68  1  0
 19 69  1  0
 19 70  1  0
 20 71  1  1
 22 72  1  1
 23 73  1  0
 23 74  1  0
 24 75  1  1
 25 76  1  0
 25 77  1  0
 25 78  1  0
 26 79  1  6
 29 80  1  0
 30 81  1  0
 30 82  1  0
 31 83  1  0
 32 84  1  1
 33 85  1  0
 33 86  1  0
 34 87  1  1
 35 88  1  0
 35 89  1  0
 35 90  1  0
 36 91  1  0
 36 92  1  0
 36 93  1  0
 37 94  1  0
 37 95  1  0
 38 96  1  6
 39 97  1  6
 40 98  1  0
 40 99  1  0
 40100  1  0
 41101  1  0
 42102  1  0
 42103  1  0
 42104  1  0
 43105  1  6
 46106  1  0
 47107  1  0
 47108  1  0
 47109  1  0
M  END
$$$$
