
     RDKit          3D

 73 75  0  0  0  0  0  0  0  0999 V2000
    8.5946    2.5707   -1.7150 O   0  0  0  0  0  0  0  0  0  0  0  0
    7.6841    2.4483   -0.6234 C   0  0  1  0  0  0  0  0  0  0  0  0
    6.9706    3.7842   -0.4291 C   0  0  0  0  0  0  0  0  0  0  0  0
    6.0040    3.7285    0.7589 C   0  0  0  0  0  0  0  0  0  0  0  0
    5.4042    2.3571    0.9785 C   0  0  0  0  0  0  0  0  0  0  0  0
    5.0628    1.9186    2.2012 C   0  0  0  0  0  0  0  0  0  0  0  0
    5.3367    1.5054   -0.2025 C   0  0  0  0  0  0  0  0  0  0  0  0
    4.2146    0.9794   -0.7337 C   0  0  0  0  0  0  0  0  0  0  0  0
    2.8612    1.1492   -0.2416 C   0  0  0  0  0  0  0  0  0  0  0  0
    1.7335    0.6363   -0.7730 C   0  0  0  0  0  0  0  0  0  0  0  0
    1.6441   -0.2204   -2.0258 C   0  0  0  0  0  0  0  0  0  0  0  0
    0.8361   -1.5044   -1.8041 C   0  0  0  0  0  0  0  0  0  0  0  0
   -0.5279   -1.2543   -1.1414 C   0  0  0  0  0  0  0  0  0  0  0  0
   -0.3996   -0.4304    0.1578 C   0  0  1  0  0  0  0  0  0  0  0  0
    0.3570    0.8879   -0.1885 C   0  0  1  0  0  0  0  0  0  0  0  0
    0.1518    1.7469    1.0611 C   0  0  0  0  0  0  0  0  0  0  0  0
   -1.2673    1.3971    1.5366 C   0  0  0  0  0  0  0  0  0  0  0  0
   -1.7309    0.1847    0.6854 C   0  0  2  0  0  0  0  0  0  0  0  0
   -2.8444   -0.6610    1.3641 C   0  0  1  0  0  0  0  0  0  0  0  0
   -3.4659   -1.6718    0.3756 C   0  0  0  0  0  0  0  0  0  0  0  0
   -4.8231   -2.2208    0.8379 C   0  0  0  0  0  0  0  0  0  0  0  0
   -5.5196   -3.0503   -0.2502 C   0  0  0  0  0  0  0  0  0  0  0  0
   -6.5879   -2.3223   -1.0952 C   0  0  0  0  0  0  0  0  0  0  0  0
   -7.0051   -3.2572   -2.1008 O   0  0  0  0  0  0  0  0  0  0  0  0
   -6.0504   -1.0823   -1.8083 C   0  0  0  0  0  0  0  0  0  0  0  0
   -7.8243   -1.9658   -0.2636 C   0  0  0  0  0  0  0  0  0  0  0  0
   -2.4732   -1.3455    2.6829 C   0  0  0  0  0  0  0  0  0  0  0  0
    0.3415   -1.2657    1.2256 C   0  0  0  0  0  0  0  0  0  0  0  0
    6.6754    1.3141   -0.8938 C   0  0  0  0  0  0  0  0  0  0  0  0
    9.0829    1.7311   -1.7784 H   0  0  0  0  0  0  0  0  0  0  0  0
    8.2746    2.2189    0.2731 H   0  0  0  0  0  0  0  0  0  0  0  0
    6.4222    4.0415   -1.3466 H   0  0  0  0  0  0  0  0  0  0  0  0
    7.6979    4.5940   -0.2901 H   0  0  0  0  0  0  0  0  0  0  0  0
    6.5463    4.0395    1.6623 H   0  0  0  0  0  0  0  0  0  0  0  0
    5.2013    4.4605    0.6023 H   0  0  0  0  0  0  0  0  0  0  0  0
    5.1597    2.5589    3.0730 H   0  0  0  0  0  0  0  0  0  0  0  0
    4.6677    0.9186    2.3600 H   0  0  0  0  0  0  0  0  0  0  0  0
    4.3293    0.3849   -1.6359 H   0  0  0  0  0  0  0  0  0  0  0  0
    2.7710    1.7763    0.6419 H   0  0  0  0  0  0  0  0  0  0  0  0
    2.6224   -0.4994   -2.4243 H   0  0  0  0  0  0  0  0  0  0  0  0
    1.1553    0.3733   -2.8085 H   0  0  0  0  0  0  0  0  0  0  0  0
    1.4218   -2.2006   -1.1929 H   0  0  0  0  0  0  0  0  0  0  0  0
    0.6790   -2.0015   -2.7687 H   0  0  0  0  0  0  0  0  0  0  0  0
   -1.1760   -0.7311   -1.8561 H   0  0  0  0  0  0  0  0  0  0  0  0
   -0.9947   -2.2235   -0.9459 H   0  0  0  0  0  0  0  0  0  0  0  0
   -0.1955    1.4049   -0.9912 H   0  0  0  0  0  0  0  0  0  0  0  0
    0.2485    2.8155    0.8431 H   0  0  0  0  0  0  0  0  0  0  0  0
    0.8710    1.5047    1.8515 H   0  0  0  0  0  0  0  0  0  0  0  0
   -1.9474    2.2438    1.3862 H   0  0  0  0  0  0  0  0  0  0  0  0
   -1.2492    1.1898    2.6097 H   0  0  0  0  0  0  0  0  0  0  0  0
   -2.2263    0.6327   -0.1927 H   0  0  0  0  0  0  0  0  0  0  0  0
   -3.6341    0.0625    1.6146 H   0  0  0  0  0  0  0  0  0  0  0  0
   -2.7866   -2.5193    0.2329 H   0  0  0  0  0  0  0  0  0  0  0  0
   -3.5839   -1.1902   -0.5999 H   0  0  0  0  0  0  0  0  0  0  0  0
   -5.4654   -1.4060    1.1857 H   0  0  0  0  0  0  0  0  0  0  0  0
   -4.6530   -2.8756    1.7012 H   0  0  0  0  0  0  0  0  0  0  0  0
   -6.0085   -3.9080    0.2336 H   0  0  0  0  0  0  0  0  0  0  0  0
   -4.7721   -3.5035   -0.9157 H   0  0  0  0  0  0  0  0  0  0  0  0
   -7.6705   -2.8214   -2.6610 H   0  0  0  0  0  0  0  0  0  0  0  0
   -5.1922   -1.3354   -2.4401 H   0  0  0  0  0  0  0  0  0  0  0  0
   -5.7532   -0.3005   -1.1027 H   0  0  0  0  0  0  0  0  0  0  0  0
   -6.8073   -0.6594   -2.4791 H   0  0  0  0  0  0  0  0  0  0  0  0
   -8.2366   -2.8566    0.2229 H   0  0  0  0  0  0  0  0  0  0  0  0
   -7.6064   -1.2201    0.5062 H   0  0  0  0  0  0  0  0  0  0  0  0
   -8.6218   -1.5694   -0.9030 H   0  0  0  0  0  0  0  0  0  0  0  0
   -3.3796   -1.6314    3.2291 H   0  0  0  0  0  0  0  0  0  0  0  0
   -1.9050   -0.6934    3.3498 H   0  0  0  0  0  0  0  0  0  0  0  0
   -1.9004   -2.2623    2.5237 H   0  0  0  0  0  0  0  0  0  0  0  0
   -0.0980   -2.2645    1.3110 H   0  0  0  0  0  0  0  0  0  0  0  0
    0.3142   -0.8022    2.2168 H   0  0  0  0  0  0  0  0  0  0  0  0
    1.3976   -1.4133    0.9792 H   0  0  0  0  0  0  0  0  0  0  0  0
    6.5263    1.2156   -1.9785 H   0  0  0  0  0  0  0  0  0  0  0  0
    7.1224    0.3656   -0.5648 H   0  0  0  0  0  0  0  0  0  0  0  0
  1  2  1  0
  2  3  1  0
  3  4  1  0
  4  5  1  0
  5  6  2  0
  5  7  1  0
  7  8  2  0
  8  9  1  0
  9 10  2  0
 10 11  1  0
 11 12  1  0
 12 13  1  0
 13 14  1  0
 14 15  1  0
 15 16  1  0
 16 17  1  0
 17 18  1  0
 18 19  1  0
 19 20  1  0
 20 21  1  0
 21 22  1  0
 22 23  1  0
 23 24  1  0
 23 25  1  0
 23 26  1  0
 19 27  1  0
 14 28  1  1
  7 29  1  0
 29  2  1  0
 15 10  1  0
 18 14  1  0
  1 30  1  0
  2 31  1  1
  3 32  1  0
  3 33  1  0
  4 34  1  0
  4 35  1  0
  6 36  1  0
  6 37  1  0
  8 38  1  0
  9 39  1  0
 11 40  1  0
 11 41  1  0
 12 42  1  0
 12 43  1  0
 13 44  1  0
 13 45  1  0
 15 46  1  6
 16 47  1  0
 16 48  1  0
 17 49  1  0
 17 50  1  0
 18 51  1  6
 19 52  1  1
 20 53  1  0
 20 54  1  0
 21 55  1  0
 21 56  1  0
 22 57  1  0
 22 58  1  0
 24 59  1  0
 25 60  1  0
 25 61  1  0
 25 62  1  0
 26 63  1  0
 26 64  1  0
 26 65  1  0
 27 66  1  0
 27 67  1  0
 27 68  1  0
 28 69  1  0
 28 70  1  0
 28 71  1  0
 29 72  1  0
 29 73  1  0
M  END
$$$$
