
     RDKit          3D

 32 34  0  0  0  0  0  0  0  0999 V2000
   -3.3060   -3.5810    0.1717 F   0  0  0  0  0  0  0  0  0  0  0  0
   -3.0711   -2.2820   -0.0562 C   0  0  0  0  0  0  0  0  0  0  0  0
   -3.3930   -1.7399   -1.2980 C   0  0  0  0  0  0  0  0  0  0  0  0
   -3.1430   -0.3886   -1.5457 C   0  0  0  0  0  0  0  0  0  0  0  0
   -2.5631    0.4010   -0.5427 C   0  0  0  0  0  0  0  0  0  0  0  0
   -2.2604   -0.1390    0.7113 C   0  0  0  0  0  0  0  0  0  0  0  0
   -2.5122   -1.4864    0.9398 C   0  0  0  0  0  0  0  0  0  0  0  0
   -2.2069   -2.0171    2.1313 F   0  0  0  0  0  0  0  0  0  0  0  0
   -2.2548    2.1264   -0.8543 S   0  0  0  0  0  0  0  0  0  0  0  0
   -2.1688    2.7997    0.4222 O   0  0  0  0  0  0  0  0  0  0  0  0
   -3.1930    2.5521   -1.8708 O   0  0  0  0  0  0  0  0  0  0  0  0
   -0.7394    2.1075   -1.5931 N   0  0  0  0  0  0  0  0  0  0  0  0
    0.3611    1.4821   -0.9500 C   0  0  0  0  0  0  0  0  0  0  0  0
    0.9600    0.3782   -1.5583 C   0  0  0  0  0  0  0  0  0  0  0  0
    2.0274   -0.2795   -0.9352 C   0  0  0  0  0  0  0  0  0  0  0  0
    2.5021    0.1744    0.3035 C   0  0  0  0  0  0  0  0  0  0  0  0
    1.8996    1.2892    0.9063 C   0  0  0  0  0  0  0  0  0  0  0  0
    0.8332    1.9391    0.2782 C   0  0  0  0  0  0  0  0  0  0  0  0
    3.5822   -0.4710    0.9543 N   0  0  0  0  0  0  0  0  0  0  0  0
    4.3144   -1.5627    0.5610 C   0  0  0  0  0  0  0  0  0  0  0  0
    5.2286   -1.8241    1.4666 N   0  0  0  0  0  0  0  0  0  0  0  0
    5.0629   -0.8792    2.4437 N   0  0  0  0  0  0  0  0  0  0  0  0
    4.0691   -0.0545    2.1454 N   0  0  0  0  0  0  0  0  0  0  0  0
   -3.8415   -2.3722   -2.0589 H   0  0  0  0  0  0  0  0  0  0  0  0
   -3.4073    0.0401   -2.5107 H   0  0  0  0  0  0  0  0  0  0  0  0
   -1.8315    0.4666    1.5048 H   0  0  0  0  0  0  0  0  0  0  0  0
   -0.7980    2.0744   -2.6094 H   0  0  0  0  0  0  0  0  0  0  0  0
    0.6004    0.0121   -2.5168 H   0  0  0  0  0  0  0  0  0  0  0  0
    2.4596   -1.1361   -1.4450 H   0  0  0  0  0  0  0  0  0  0  0  0
    2.2461    1.6729    1.8657 H   0  0  0  0  0  0  0  0  0  0  0  0
    0.3886    2.8099    0.7561 H   0  0  0  0  0  0  0  0  0  0  0  0
    4.1548   -2.1125   -0.3520 H   0  0  0  0  0  0  0  0  0  0  0  0
  1  2  1  0
  2  3  2  0
  3  4  1  0
  4  5  2  0
  5  6  1  0
  6  7  2  0
  7  8  1  0
  5  9  1  0
  9 10  2  0
  9 11  2  0
  9 12  1  0
 12 13  1  0
 13 14  2  0
 14 15  1  0
 15 16  2  0
 16 17  1  0
 17 18  2  0
 16 19  1  0
 19 20  1  0
 20 21  2  0
 21 22  1  0
 22 23  2  0
  7  2  1  0
 18 13  1  0
 23 19  1  0
  3 24  1  0
  4 25  1  0
  6 26  1  0
 12 27  1  0
 14 28  1  0
 15 29  1  0
 17 30  1  0
 18 31  1  0
 20 32  1  0
M  END
$$$$
