
     RDKit          3D

 33 36  0  0  0  0  0  0  0  0999 V2000
    5.5148    0.4249   -0.1234 C   0  0  0  0  0  0  0  0  0  0  0  0
    4.1181    0.8604   -0.3615 C   0  0  0  0  0  0  0  0  0  0  0  0
    3.6893    2.0105   -1.0011 C   0  0  0  0  0  0  0  0  0  0  0  0
    2.3282    2.0732   -1.0395 O   0  0  0  0  0  0  0  0  0  0  0  0
    1.8834    0.9567   -0.4162 C   0  0  0  0  0  0  0  0  0  0  0  0
    2.9264    0.1872    0.0195 C   0  0  0  0  0  0  0  0  0  0  0  0
    2.6356   -1.0461    0.7017 C   0  0  0  0  0  0  0  0  0  0  0  0
    3.5090   -1.8437    1.0162 O   0  0  0  0  0  0  0  0  0  0  0  0
    1.1551   -1.3342    1.0367 C   0  0  0  0  0  0  0  0  0  0  0  0
    0.9208   -2.2102    1.8588 O   0  0  0  0  0  0  0  0  0  0  0  0
    0.0662   -0.4950    0.3858 C   0  0  0  0  0  0  0  0  0  0  0  0
    0.4706    0.6769   -0.3007 C   0  0  0  0  0  0  0  0  0  0  0  0
   -0.4786    1.5202   -0.8646 C   0  0  0  0  0  0  0  0  0  0  0  0
   -1.8305    1.2091   -0.7614 C   0  0  0  0  0  0  0  0  0  0  0  0
   -2.2859    0.0453   -0.1094 C   0  0  0  0  0  0  0  0  0  0  0  0
   -1.3256   -0.8361    0.4742 C   0  0  0  0  0  0  0  0  0  0  0  0
   -1.8320   -2.0074    1.0935 C   0  0  0  0  0  0  0  0  0  0  0  0
   -3.1946   -2.2956    1.1599 C   0  0  0  0  0  0  0  0  0  0  0  0
   -4.1116   -1.4227    0.6026 C   0  0  0  0  0  0  0  0  0  0  0  0
   -3.6765   -0.2543   -0.0342 C   0  0  0  0  0  0  0  0  0  0  0  0
   -4.7279    0.6513   -0.6283 C   0  0  0  0  0  0  0  0  0  0  0  0
    5.7101   -0.5267   -0.6278 H   0  0  0  0  0  0  0  0  0  0  0  0
    5.6983    0.2940    0.9478 H   0  0  0  0  0  0  0  0  0  0  0  0
    6.2304    1.1620   -0.5016 H   0  0  0  0  0  0  0  0  0  0  0  0
    4.2035    2.8418   -1.4652 H   0  0  0  0  0  0  0  0  0  0  0  0
   -0.1795    2.4246   -1.3913 H   0  0  0  0  0  0  0  0  0  0  0  0
   -2.5334    1.9032   -1.2186 H   0  0  0  0  0  0  0  0  0  0  0  0
   -1.1720   -2.7449    1.5429 H   0  0  0  0  0  0  0  0  0  0  0  0
   -3.5319   -3.2061    1.6493 H   0  0  0  0  0  0  0  0  0  0  0  0
   -5.1712   -1.6613    0.6643 H   0  0  0  0  0  0  0  0  0  0  0  0
   -4.5882    0.7381   -1.7106 H   0  0  0  0  0  0  0  0  0  0  0  0
   -4.6822    1.6427   -0.1663 H   0  0  0  0  0  0  0  0  0  0  0  0
   -5.7383    0.2623   -0.4610 H   0  0  0  0  0  0  0  0  0  0  0  0
  1  2  1  0
  2  3  2  0
  3  4  1  0
  4  5  1  0
  5  6  2  0
  6  7  1  0
  7  8  2  0
  7  9  1  0
  9 10  2  0
  9 11  1  0
 11 12  2  0
 12 13  1  0
 13 14  2  0
 14 15  1  0
 15 16  2  0
 16 17  1  0
 17 18  2  0
 18 19  1  0
 19 20  2  0
 20 21  1  0
  6  2  1  0
 16 11  1  0
 12  5  1  0
 20 15  1  0
  1 22  1  0
  1 23  1  0
  1 24  1  0
  3 25  1  0
 13 26  1  0
 14 27  1  0
 17 28  1  0
 18 29  1  0
 19 30  1  0
 21 31  1  0
 21 32  1  0
 21 33  1  0
M  END
$$$$
