
     RDKit          3D

 47 47  0  0  0  0  0  0  0  0999 V2000
    2.0395   -2.6318   -2.5428 O   0  0  0  0  0  0  0  0  0  0  0  0
    2.4885   -2.5357   -1.1870 C   0  0  0  0  0  0  0  0  0  0  0  0
    2.7745   -1.0620   -0.8659 C   0  0  2  0  0  0  0  0  0  0  0  0
    1.4829   -0.2110   -0.8186 C   0  0  2  0  0  0  0  0  0  0  0  0
    1.7801    1.2951   -0.5876 C   0  0  1  0  0  0  0  0  0  0  0  0
    2.6241    1.6648    0.6533 C   0  0  2  0  0  0  0  0  0  0  0  0
    2.0037    1.2661    1.9954 C   0  0  0  0  0  0  0  0  0  0  0  0
    2.5268    0.0183    2.4511 O   0  0  0  0  0  0  0  0  0  0  0  0
    2.8057    3.0962    0.6428 O   0  0  0  0  0  0  0  0  0  0  0  0
    2.4686    1.8521   -1.7356 O   0  0  0  0  0  0  0  0  0  0  0  0
    0.6291   -0.7526    0.1901 O   0  0  0  0  0  0  0  0  0  0  0  0
   -0.7636   -0.7039   -0.1368 C   0  0  2  0  0  0  0  0  0  0  0  0
   -1.2198    0.6375   -0.1738 O   0  0  0  0  0  0  0  0  0  0  0  0
   -2.5394    0.7435   -0.7346 C   0  0  2  0  0  0  0  0  0  0  0  0
   -3.0454    2.1786   -0.5166 C   0  0  0  0  0  0  0  0  0  0  0  0
   -3.4475    2.4041    0.8315 O   0  0  0  0  0  0  0  0  0  0  0  0
   -3.4886   -0.3800   -0.2490 C   0  0  1  0  0  0  0  0  0  0  0  0
   -3.0090   -1.0902    1.0284 C   0  0  1  0  0  0  0  0  0  0  0  0
   -1.5245   -1.4856    0.9561 C   0  0  1  0  0  0  0  0  0  0  0  0
   -1.4158   -2.8973    0.6884 O   0  0  0  0  0  0  0  0  0  0  0  0
   -3.2678   -0.2492    2.1625 O   0  0  0  0  0  0  0  0  0  0  0  0
   -4.8296    0.0806   -0.0710 O   0  0  0  0  0  0  0  0  0  0  0  0
    3.6608   -0.5421   -1.8746 O   0  0  0  0  0  0  0  0  0  0  0  0
    1.7934   -3.5643   -2.6846 H   0  0  0  0  0  0  0  0  0  0  0  0
    3.4118   -3.1195   -1.1145 H   0  0  0  0  0  0  0  0  0  0  0  0
    1.7370   -2.9692   -0.5210 H   0  0  0  0  0  0  0  0  0  0  0  0
    3.2925   -1.0230    0.0970 H   0  0  0  0  0  0  0  0  0  0  0  0
    1.0076   -0.2941   -1.8063 H   0  0  0  0  0  0  0  0  0  0  0  0
    0.8416    1.8543   -0.5290 H   0  0  0  0  0  0  0  0  0  0  0  0
    3.6317    1.2457    0.5562 H   0  0  0  0  0  0  0  0  0  0  0  0
    0.9144    1.1858    1.9315 H   0  0  0  0  0  0  0  0  0  0  0  0
    2.2183    2.0140    2.7672 H   0  0  0  0  0  0  0  0  0  0  0  0
    3.4372    0.1939    2.7482 H   0  0  0  0  0  0  0  0  0  0  0  0
    2.9054    3.3301   -0.3036 H   0  0  0  0  0  0  0  0  0  0  0  0
    3.1970    1.2247   -1.9431 H   0  0  0  0  0  0  0  0  0  0  0  0
   -0.9001   -1.1900   -1.1127 H   0  0  0  0  0  0  0  0  0  0  0  0
   -2.4152    0.6294   -1.8202 H   0  0  0  0  0  0  0  0  0  0  0  0
   -3.9064    2.3839   -1.1608 H   0  0  0  0  0  0  0  0  0  0  0  0
   -2.2505    2.8946   -0.7529 H   0  0  0  0  0  0  0  0  0  0  0  0
   -3.5268    3.3664    0.9475 H   0  0  0  0  0  0  0  0  0  0  0  0
   -3.5279   -1.1350   -1.0448 H   0  0  0  0  0  0  0  0  0  0  0  0
   -3.6354   -1.9772    1.1839 H   0  0  0  0  0  0  0  0  0  0  0  0
   -1.0381   -1.3129    1.9245 H   0  0  0  0  0  0  0  0  0  0  0  0
   -1.5757   -3.3587    1.5307 H   0  0  0  0  0  0  0  0  0  0  0  0
   -2.9634   -0.7086    2.9629 H   0  0  0  0  0  0  0  0  0  0  0  0
   -4.7757    0.6438    0.7353 H   0  0  0  0  0  0  0  0  0  0  0  0
    3.3940   -1.0094   -2.6973 H   0  0  0  0  0  0  0  0  0  0  0  0
  1  2  1  0
  2  3  1  0
  3  4  1  0
  4  5  1  0
  5  6  1  0
  6  7  1  0
  7  8  1  0
  6  9  1  0
  5 10  1  0
  4 11  1  0
 11 12  1  0
 12 13  1  0
 13 14  1  0
 14 15  1  0
 15 16  1  0
 14 17  1  0
 17 18  1  0
 18 19  1  0
 19 20  1  0
 18 21  1  0
 17 22  1  0
  3 23  1  0
 19 12  1  0
  1 24  1  0
  2 25  1  0
  2 26  1  0
  3 27  1  1
  4 28  1  6
  5 29  1  1
  6 30  1  6
  7 31  1  0
  7 32  1  0
  8 33  1  0
  9 34  1  0
 10 35  1  0
 12 36  1  6
 14 37  1  6
 15 38  1  0
 15 39  1  0
 16 40  1  0
 17 41  1  6
 18 42  1  1
 19 43  1  1
 20 44  1  0
 21 45  1  0
 22 46  1  0
 23 47  1  0
M  END
$$$$
