
     RDKit          3D

 44 47  0  0  0  0  0  0  0  0999 V2000
   -1.2017    0.6793    5.1936 O   0  0  0  0  0  0  0  0  0  0  0  0
   -0.1439    0.2087    4.4746 C   0  0  0  0  0  0  0  0  0  0  0  0
    0.9749   -0.3359    5.1033 C   0  0  0  0  0  0  0  0  0  0  0  0
    2.0417   -0.8088    4.3307 C   0  0  0  0  0  0  0  0  0  0  0  0
    1.9827   -0.7350    2.9365 C   0  0  0  0  0  0  0  0  0  0  0  0
    0.8544   -0.1864    2.3392 C   0  0  0  0  0  0  0  0  0  0  0  0
   -0.2160    0.2884    3.0900 C   0  0  0  0  0  0  0  0  0  0  0  0
    0.7610   -0.0967    0.9407 O   0  0  0  0  0  0  0  0  0  0  0  0
    1.7719   -0.5560    0.0987 C   0  0  0  0  0  0  0  0  0  0  0  0
    1.6446   -0.4907   -1.1983 N   0  0  0  0  0  0  0  0  0  0  0  0
    0.4970    0.0845   -1.6651 C   0  0  0  0  0  0  0  0  0  0  0  0
    0.5062    1.7840   -1.9478 S   0  0  0  0  0  0  0  0  0  0  0  0
   -1.1112    1.7854   -2.4413 C   0  0  0  0  0  0  0  0  0  0  0  0
   -1.6747    0.5253   -2.4261 C   0  0  0  0  0  0  0  0  0  0  0  0
   -0.7215   -0.4927   -2.0231 C   0  0  0  0  0  0  0  0  0  0  0  0
   -1.0108   -1.9314   -1.9879 C   0  0  0  0  0  0  0  0  0  0  0  0
   -2.1260   -2.4078   -2.1803 O   0  0  0  0  0  0  0  0  0  0  0  0
    0.0448   -2.7713   -1.7731 N   0  0  0  0  0  0  0  0  0  0  0  0
   -3.1037    0.3026   -2.8476 C   0  0  0  0  0  0  0  0  0  0  0  0
   -3.9022    1.6141   -2.9197 C   0  0  0  0  0  0  0  0  0  0  0  0
   -3.1035    2.7332   -3.5982 C   0  0  0  0  0  0  0  0  0  0  0  0
   -1.8167    3.0498   -2.8246 C   0  0  0  0  0  0  0  0  0  0  0  0
    2.9813   -1.1270    0.7482 C   0  0  0  0  0  0  0  0  0  0  0  0
    3.0627   -1.2082    2.0878 C   0  0  0  0  0  0  0  0  0  0  0  0
    4.1680   -1.6368   -0.0051 C   0  0  0  0  0  0  0  0  0  0  0  0
    5.1098   -2.2069    0.5373 O   0  0  0  0  0  0  0  0  0  0  0  0
    4.1800   -1.4386   -1.3486 N   0  0  0  0  0  0  0  0  0  0  0  0
   -1.0094    0.5785    6.1406 H   0  0  0  0  0  0  0  0  0  0  0  0
    1.0348   -0.4010    6.1859 H   0  0  0  0  0  0  0  0  0  0  0  0
    2.9115   -1.2323    4.8278 H   0  0  0  0  0  0  0  0  0  0  0  0
   -1.0897    0.7121    2.6054 H   0  0  0  0  0  0  0  0  0  0  0  0
   -0.1249   -3.7594   -1.8943 H   0  0  0  0  0  0  0  0  0  0  0  0
    0.9929   -2.4240   -1.8323 H   0  0  0  0  0  0  0  0  0  0  0  0
   -3.1039   -0.1760   -3.8347 H   0  0  0  0  0  0  0  0  0  0  0  0
   -3.6100   -0.3715   -2.1487 H   0  0  0  0  0  0  0  0  0  0  0  0
   -4.1730    1.9333   -1.9050 H   0  0  0  0  0  0  0  0  0  0  0  0
   -4.8398    1.4412   -3.4600 H   0  0  0  0  0  0  0  0  0  0  0  0
   -3.7165    3.6384   -3.6739 H   0  0  0  0  0  0  0  0  0  0  0  0
   -2.8541    2.4277   -4.6227 H   0  0  0  0  0  0  0  0  0  0  0  0
   -2.0672    3.6065   -1.9128 H   0  0  0  0  0  0  0  0  0  0  0  0
   -1.1730    3.6914   -3.4372 H   0  0  0  0  0  0  0  0  0  0  0  0
    3.9393   -1.6222    2.5795 H   0  0  0  0  0  0  0  0  0  0  0  0
    4.9923   -1.7348   -1.8719 H   0  0  0  0  0  0  0  0  0  0  0  0
    3.4416   -0.9330   -1.8310 H   0  0  0  0  0  0  0  0  0  0  0  0
  1  2  1  0
  2  3  2  0
  3  4  1  0
  4  5  2  0
  5  6  1  0
  6  7  2  0
  6  8  1  0
  8  9  1  0
  9 10  2  0
 10 11  1  0
 11 12  1  0
 12 13  1  0
 13 14  2  0
 14 15  1  0
 15 16  1  0
 16 17  2  0
 16 18  1  0
 14 19  1  0
 19 20  1  0
 20 21  1  0
 21 22  1  0
  9 23  1  0
 23 24  2  0
 23 25  1  0
 25 26  2  0
 25 27  1  0
  7  2  1  0
 15 11  2  0
 24  5  1  0
 22 13  1  0
  1 28  1  0
  3 29  1  0
  4 30  1  0
  7 31  1  0
 18 32  1  0
 18 33  1  0
 19 34  1  0
 19 35  1  0
 20 36  1  0
 20 37  1  0
 21 38  1  0
 21 39  1  0
 22 40  1  0
 22 41  1  0
 24 42  1  0
 27 43  1  0
 27 44  1  0
M  END
$$$$
