
     RDKit          3D

 53 57  0  0  0  0  0  0  0  0999 V2000
    3.8779   -4.3815   -1.6267 C   0  0  0  0  0  0  0  0  0  0  0  0
    4.4514   -3.1361   -0.9683 C   0  0  0  0  0  0  0  0  0  0  0  0
    3.3679   -2.2319   -0.4402 C   0  0  0  0  0  0  0  0  0  0  0  0
    2.8815   -2.3907    0.8614 C   0  0  0  0  0  0  0  0  0  0  0  0
    1.8643   -1.5633    1.3447 C   0  0  0  0  0  0  0  0  0  0  0  0
    1.3062   -0.5556    0.5412 C   0  0  0  0  0  0  0  0  0  0  0  0
    1.7890   -0.4158   -0.7706 C   0  0  0  0  0  0  0  0  0  0  0  0
    2.8080   -1.2417   -1.2543 C   0  0  0  0  0  0  0  0  0  0  0  0
    0.1853    0.3171    1.1052 C   0  0  0  0  0  0  0  0  0  0  0  0
   -1.1517   -0.2628    0.8161 N   0  0  0  0  0  0  0  0  0  0  0  0
   -1.7598    0.1060   -0.4801 C   0  0  0  0  0  0  0  0  0  0  0  0
   -1.9754    1.6278   -0.6183 C   0  0  0  0  0  0  0  0  0  0  0  0
   -0.7476    2.3495   -0.1939 C   0  0  0  0  0  0  0  0  0  0  0  0
    0.2042    1.7320    0.5919 C   0  0  0  0  0  0  0  0  0  0  0  0
    1.2036    2.6355    0.8347 N   0  0  0  0  0  0  0  0  0  0  0  0
    0.9177    3.8287    0.2057 C   0  0  0  0  0  0  0  0  0  0  0  0
   -0.3096    3.6762   -0.4461 C   0  0  0  0  0  0  0  0  0  0  0  0
   -0.8338    4.7676   -1.1654 C   0  0  0  0  0  0  0  0  0  0  0  0
   -0.1151    5.9679   -1.2120 C   0  0  0  0  0  0  0  0  0  0  0  0
    1.1074    6.0904   -0.5553 C   0  0  0  0  0  0  0  0  0  0  0  0
    1.6480    5.0224    0.1672 C   0  0  0  0  0  0  0  0  0  0  0  0
   -1.6761   -1.1515    1.7627 C   0  0  0  0  0  0  0  0  0  0  0  0
   -1.0518   -1.3548    2.8209 O   0  0  0  0  0  0  0  0  0  0  0  0
   -3.0035   -1.8949    1.5578 C   0  0  0  0  0  0  0  0  0  0  0  0
   -4.3275   -1.1539    1.2809 C   0  0  0  0  0  0  0  0  0  0  0  0
   -4.7469   -2.3341    0.3830 C   0  0  0  0  0  0  0  0  0  0  0  0
   -3.2705   -2.7710    0.3165 C   0  0  0  0  0  0  0  0  0  0  0  0
    3.2837   -4.9680   -0.9177 H   0  0  0  0  0  0  0  0  0  0  0  0
    4.6861   -5.0184   -2.0001 H   0  0  0  0  0  0  0  0  0  0  0  0
    3.2319   -4.1223   -2.4724 H   0  0  0  0  0  0  0  0  0  0  0  0
    5.1223   -3.4249   -0.1501 H   0  0  0  0  0  0  0  0  0  0  0  0
    5.0708   -2.5878   -1.6886 H   0  0  0  0  0  0  0  0  0  0  0  0
    3.2862   -3.1649    1.5097 H   0  0  0  0  0  0  0  0  0  0  0  0
    1.4989   -1.7176    2.3594 H   0  0  0  0  0  0  0  0  0  0  0  0
    1.3768    0.3418   -1.4340 H   0  0  0  0  0  0  0  0  0  0  0  0
    3.1591   -1.1073   -2.2750 H   0  0  0  0  0  0  0  0  0  0  0  0
    0.3215    0.3869    2.1928 H   0  0  0  0  0  0  0  0  0  0  0  0
   -2.7110   -0.3886   -0.6469 H   0  0  0  0  0  0  0  0  0  0  0  0
   -1.0864   -0.2535   -1.2671 H   0  0  0  0  0  0  0  0  0  0  0  0
   -2.8070    1.9396    0.0249 H   0  0  0  0  0  0  0  0  0  0  0  0
   -2.2386    1.8724   -1.6527 H   0  0  0  0  0  0  0  0  0  0  0  0
    2.0391    2.4545    1.3750 H   0  0  0  0  0  0  0  0  0  0  0  0
   -1.7859    4.6827   -1.6800 H   0  0  0  0  0  0  0  0  0  0  0  0
   -0.5171    6.8123   -1.7663 H   0  0  0  0  0  0  0  0  0  0  0  0
    1.6502    7.0317   -0.6031 H   0  0  0  0  0  0  0  0  0  0  0  0
    2.5993    5.1226    0.6792 H   0  0  0  0  0  0  0  0  0  0  0  0
   -3.1563   -2.5284    2.4522 H   0  0  0  0  0  0  0  0  0  0  0  0
   -4.2509   -0.1956    0.7618 H   0  0  0  0  0  0  0  0  0  0  0  0
   -4.9621   -1.0033    2.1604 H   0  0  0  0  0  0  0  0  0  0  0  0
   -5.1993   -2.0594   -0.5735 H   0  0  0  0  0  0  0  0  0  0  0  0
   -5.3943   -3.0590    0.8891 H   0  0  0  0  0  0  0  0  0  0  0  0
   -3.1059   -3.8430    0.4671 H   0  0  0  0  0  0  0  0  0  0  0  0
   -2.7542   -2.4842   -0.6029 H   0  0  0  0  0  0  0  0  0  0  0  0
  1  2  1  0
  2  3  1  0
  3  4  2  0
  4  5  1  0
  5  6  2  0
  6  7  1  0
  7  8  2  0
  6  9  1  0
  9 10  1  0
 10 11  1  0
 11 12  1  0
 12 13  1  0
 13 14  2  0
 14 15  1  0
 15 16  1  0
 16 17  2  0
 17 18  1  0
 18 19  2  0
 19 20  1  0
 20 21  2  0
 10 22  1  0
 22 23  2  0
 22 24  1  0
 24 25  1  0
 25 26  1  0
 26 27  1  0
  8  3  1  0
 14  9  1  0
 21 16  1  0
 27 24  1  0
 17 13  1  0
  1 28  1  0
  1 29  1  0
  1 30  1  0
  2 31  1  0
  2 32  1  0
  4 33  1  0
  5 34  1  0
  7 35  1  0
  8 36  1  0
  9 37  1  0
 11 38  1  0
 11 39  1  0
 12 40  1  0
 12 41  1  0
 15 42  1  0
 18 43  1  0
 19 44  1  0
 20 45  1  0
 21 46  1  0
 24 47  1  0
 25 48  1  0
 25 49  1  0
 26 50  1  0
 26 51  1  0
 27 52  1  0
 27 53  1  0
M  END
$$$$
