
     RDKit          3D

 44 46  0  0  0  0  0  0  0  0999 V2000
   -6.4479    2.6351    0.1618 C   0  0  0  0  0  0  0  0  0  0  0  0
   -5.6377    1.3753    0.2546 C   0  0  0  0  0  0  0  0  0  0  0  0
   -5.3009    0.8409    1.5056 C   0  0  0  0  0  0  0  0  0  0  0  0
   -4.5213   -0.3133    1.5953 C   0  0  0  0  0  0  0  0  0  0  0  0
   -4.0579   -0.9233    0.4267 C   0  0  0  0  0  0  0  0  0  0  0  0
   -4.3904   -0.4067   -0.8266 C   0  0  0  0  0  0  0  0  0  0  0  0
   -5.1689    0.7491   -0.9084 C   0  0  0  0  0  0  0  0  0  0  0  0
   -3.0981   -2.4110    0.5475 S   0  0  0  0  0  0  0  0  0  0  0  0
   -3.0593   -3.0394   -0.7608 O   0  0  0  0  0  0  0  0  0  0  0  0
   -3.6282   -3.1514    1.6810 O   0  0  0  0  0  0  0  0  0  0  0  0
   -1.4642   -1.9149    0.9785 C   0  0  0  0  0  0  0  0  0  0  0  0
   -0.8286   -1.1483   -0.1373 C   0  0  0  0  0  0  0  0  0  0  0  0
   -1.2212   -0.0369   -0.4806 O   0  0  0  0  0  0  0  0  0  0  0  0
    0.2474   -1.7630   -0.7225 N   0  0  0  0  0  0  0  0  0  0  0  0
    1.0412   -1.0876   -1.6839 C   0  0  0  0  0  0  0  0  0  0  0  0
    1.9332   -2.3249   -2.7095 S   0  0  0  0  0  0  0  0  0  0  0  0
    3.4832   -1.6503   -2.2774 C   0  0  0  0  0  0  0  0  0  0  0  0
    3.3692   -0.6708   -1.3673 C   0  0  0  0  0  0  0  0  0  0  0  0
    2.0795   -0.4254   -0.9274 N   0  0  0  0  0  0  0  0  0  0  0  0
    4.4950    0.1207   -0.8613 C   0  0  0  0  0  0  0  0  0  0  0  0
    4.4598    1.5226   -0.9091 C   0  0  0  0  0  0  0  0  0  0  0  0
    5.5308    2.2803   -0.4254 C   0  0  0  0  0  0  0  0  0  0  0  0
    6.6388    1.6329    0.1101 C   0  0  0  0  0  0  0  0  0  0  0  0
    6.6925    0.2461    0.1692 C   0  0  0  0  0  0  0  0  0  0  0  0
    5.6224   -0.5096   -0.3153 C   0  0  0  0  0  0  0  0  0  0  0  0
    7.7053    2.3305    0.5932 O   0  0  0  0  0  0  0  0  0  0  0  0
   -7.0434    2.6500   -0.7571 H   0  0  0  0  0  0  0  0  0  0  0  0
   -5.7861    3.5065    0.1690 H   0  0  0  0  0  0  0  0  0  0  0  0
   -7.1460    2.7132    1.0019 H   0  0  0  0  0  0  0  0  0  0  0  0
   -5.6533    1.3181    2.4178 H   0  0  0  0  0  0  0  0  0  0  0  0
   -4.2921   -0.7300    2.5732 H   0  0  0  0  0  0  0  0  0  0  0  0
   -4.0433   -0.8850   -1.7395 H   0  0  0  0  0  0  0  0  0  0  0  0
   -5.4107    1.1574   -1.8876 H   0  0  0  0  0  0  0  0  0  0  0  0
   -0.9009   -2.8250    1.2064 H   0  0  0  0  0  0  0  0  0  0  0  0
   -1.4977   -1.3010    1.8823 H   0  0  0  0  0  0  0  0  0  0  0  0
    0.7037   -2.5520   -0.2933 H   0  0  0  0  0  0  0  0  0  0  0  0
    0.4697   -0.3904   -2.3050 H   0  0  0  0  0  0  0  0  0  0  0  0
    4.4035   -1.9811   -2.7395 H   0  0  0  0  0  0  0  0  0  0  0  0
    1.8720    0.5242   -0.6434 H   0  0  0  0  0  0  0  0  0  0  0  0
    3.6029    2.0361   -1.3383 H   0  0  0  0  0  0  0  0  0  0  0  0
    5.4818    3.3632   -0.4781 H   0  0  0  0  0  0  0  0  0  0  0  0
    7.5626   -0.2467    0.5937 H   0  0  0  0  0  0  0  0  0  0  0  0
    5.6724   -1.5942   -0.2514 H   0  0  0  0  0  0  0  0  0  0  0  0
    7.5312    3.2799    0.4864 H   0  0  0  0  0  0  0  0  0  0  0  0
  1  2  1  0
  2  3  2  0
  3  4  1  0
  4  5  2  0
  5  6  1  0
  6  7  2  0
  5  8  1  0
  8  9  2  0
  8 10  2  0
  8 11  1  0
 11 12  1  0
 12 13  2  0
 12 14  1  0
 14 15  1  0
 15 16  1  0
 16 17  1  0
 17 18  2  0
 18 19  1  0
 18 20  1  0
 20 21  2  0
 21 22  1  0
 22 23  2  0
 23 24  1  0
 24 25  2  0
 23 26  1  0
  7  2  1  0
 19 15  1  0
 25 20  1  0
  1 27  1  0
  1 28  1  0
  1 29  1  0
  3 30  1  0
  4 31  1  0
  6 32  1  0
  7 33  1  0
 11 34  1  0
 11 35  1  0
 14 36  1  0
 15 37  1  0
 17 38  1  0
 19 39  1  0
 21 40  1  0
 22 41  1  0
 24 42  1  0
 25 43  1  0
 26 44  1  0
M  END
$$$$
