
     RDKit          3D

 54 58  0  0  0  0  0  0  0  0999 V2000
    5.7735    0.2051   -0.1927 C   0  0  0  0  0  0  0  0  0  0  0  0
    4.3882   -0.1533   -0.6274 C   0  0  0  0  0  0  0  0  0  0  0  0
    3.2449   -0.0492    0.0816 C   0  0  0  0  0  0  0  0  0  0  0  0
    3.1658    0.5512    1.4963 C   0  0  0  0  0  0  0  0  0  0  0  0
    1.9611    1.3760    1.7834 N   0  0  0  0  0  0  0  0  0  0  0  0
    0.8120    0.6777    1.2427 C   0  0  0  0  0  0  0  0  0  0  0  0
    0.9526    0.6359   -0.2922 C   0  0  0  0  0  0  0  0  0  0  0  0
    1.9150   -0.4994   -0.5661 C   0  0  0  0  0  0  0  0  0  0  0  0
    1.4544   -1.8816   -0.0356 C   0  0  0  0  0  0  0  0  0  0  0  0
   -0.0429   -2.2777   -0.1996 C   0  0  0  0  0  0  0  0  0  0  0  0
   -0.1426   -3.7734    0.1844 C   0  0  0  0  0  0  0  0  0  0  0  0
   -1.1232   -1.4539    0.6157 C   0  0  1  0  0  0  0  0  0  0  0  0
   -1.2725    0.1182    0.3537 C   0  0  0  0  0  0  0  0  0  0  0  0
   -0.4600    0.5151   -0.8798 C   0  0  0  0  0  0  0  0  0  0  0  0
   -0.8733    1.8276   -1.3374 O   0  0  0  0  0  0  0  0  0  0  0  0
   -0.4759    2.1624   -2.5957 C   0  0  0  0  0  0  0  0  0  0  0  0
    0.2386    1.4832   -3.3185 O   0  0  0  0  0  0  0  0  0  0  0  0
   -1.0304    3.5032   -2.9663 C   0  0  0  0  0  0  0  0  0  0  0  0
   -0.6423    1.0140    1.4640 C   0  0  0  0  0  0  0  0  0  0  0  0
   -2.7581    0.2755    0.2548 C   0  0  0  0  0  0  0  0  0  0  0  0
   -3.3607   -0.9758    0.2661 C   0  0  0  0  0  0  0  0  0  0  0  0
   -2.4507   -2.0448    0.2903 N   0  0  0  0  0  0  0  0  0  0  0  0
   -4.7354   -1.1045    0.1607 C   0  0  0  0  0  0  0  0  0  0  0  0
   -5.5165    0.0509    0.0899 C   0  0  0  0  0  0  0  0  0  0  0  0
   -4.9134    1.3146    0.1087 C   0  0  0  0  0  0  0  0  0  0  0  0
   -3.5248    1.4324    0.1898 C   0  0  0  0  0  0  0  0  0  0  0  0
    6.4474   -0.6331   -0.3991 H   0  0  0  0  0  0  0  0  0  0  0  0
    5.8524    0.4264    0.8738 H   0  0  0  0  0  0  0  0  0  0  0  0
    6.1282    1.0731   -0.7568 H   0  0  0  0  0  0  0  0  0  0  0  0
    4.3373   -0.5609   -1.6374 H   0  0  0  0  0  0  0  0  0  0  0  0
    3.1967   -0.2738    2.2192 H   0  0  0  0  0  0  0  0  0  0  0  0
    4.0333    1.1830    1.7087 H   0  0  0  0  0  0  0  0  0  0  0  0
    2.0763    2.2809    1.3276 H   0  0  0  0  0  0  0  0  0  0  0  0
    0.8800   -0.3043    1.7202 H   0  0  0  0  0  0  0  0  0  0  0  0
    1.3900    1.5763   -0.6621 H   0  0  0  0  0  0  0  0  0  0  0  0
    2.0351   -0.5838   -1.6546 H   0  0  0  0  0  0  0  0  0  0  0  0
    2.0628   -2.6246   -0.5725 H   0  0  0  0  0  0  0  0  0  0  0  0
    1.7412   -2.0210    1.0149 H   0  0  0  0  0  0  0  0  0  0  0  0
   -0.2899   -2.2302   -1.2677 H   0  0  0  0  0  0  0  0  0  0  0  0
    0.5988   -4.3685   -0.3602 H   0  0  0  0  0  0  0  0  0  0  0  0
   -1.1224   -4.1926   -0.0639 H   0  0  0  0  0  0  0  0  0  0  0  0
    0.0302   -3.9159    1.2566 H   0  0  0  0  0  0  0  0  0  0  0  0
   -0.9579   -1.6214    1.6894 H   0  0  0  0  0  0  0  0  0  0  0  0
   -0.5582   -0.1858   -1.7133 H   0  0  0  0  0  0  0  0  0  0  0  0
   -0.6378    4.2661   -2.2894 H   0  0  0  0  0  0  0  0  0  0  0  0
   -2.1222    3.4768   -2.9254 H   0  0  0  0  0  0  0  0  0  0  0  0
   -0.7272    3.7512   -3.9875 H   0  0  0  0  0  0  0  0  0  0  0  0
   -0.8395    2.0810    1.3073 H   0  0  0  0  0  0  0  0  0  0  0  0
   -0.9886    0.7475    2.4685 H   0  0  0  0  0  0  0  0  0  0  0  0
   -2.7596   -2.7815    0.9205 H   0  0  0  0  0  0  0  0  0  0  0  0
   -5.2001   -2.0839    0.1256 H   0  0  0  0  0  0  0  0  0  0  0  0
   -6.5974   -0.0317    0.0121 H   0  0  0  0  0  0  0  0  0  0  0  0
   -5.5304    2.2078    0.0522 H   0  0  0  0  0  0  0  0  0  0  0  0
   -3.0620    2.4140    0.1958 H   0  0  0  0  0  0  0  0  0  0  0  0
  1  2  1  0
  2  3  2  3
  3  4  1  0
  4  5  1  0
  5  6  1  0
  6  7  1  0
  7  8  1  0
  8  9  1  0
  9 10  1  0
 10 11  1  0
 10 12  1  0
 12 13  1  0
 13 14  1  0
 14 15  1  0
 15 16  1  0
 16 17  2  0
 16 18  1  0
 13 19  1  0
 13 20  1  0
 20 21  2  0
 21 22  1  0
 21 23  1  0
 23 24  2  0
 24 25  1  0
 25 26  2  0
  8  3  1  0
 22 12  1  0
 19  6  1  0
 26 20  1  0
 14  7  1  0
  1 27  1  0
  1 28  1  0
  1 29  1  0
  2 30  1  0
  4 31  1  0
  4 32  1  0
  5 33  1  0
  6 34  1  0
  7 35  1  0
  8 36  1  0
  9 37  1  0
  9 38  1  0
 10 39  1  0
 11 40  1  0
 11 41  1  0
 11 42  1  0
 12 43  1  1
 14 44  1  0
 18 45  1  0
 18 46  1  0
 18 47  1  0
 19 48  1  0
 19 49  1  0
 22 50  1  0
 23 51  1  0
 24 52  1  0
 25 53  1  0
 26 54  1  0
M  END
$$$$
