
     RDKit          3D

 74 77  0  0  0  0  0  0  0  0999 V2000
   -4.2394    1.1356   -2.5814 C   0  0  0  0  0  0  0  0  0  0  0  0
   -4.2140   -0.2234   -2.1678 O   0  0  0  0  0  0  0  0  0  0  0  0
   -4.7113   -0.4113   -0.8483 C   0  0  0  0  0  0  0  0  0  0  0  0
   -3.6944   -0.3619    0.2949 C   0  0  0  0  0  0  0  0  0  0  0  0
   -3.9173   -0.8239    1.4058 O   0  0  0  0  0  0  0  0  0  0  0  0
   -2.5594    0.2856   -0.0798 O   0  0  0  0  0  0  0  0  0  0  0  0
   -1.3840    0.3426    0.7737 C   0  0  2  0  0  0  0  0  0  0  0  0
   -0.2913    1.0433   -0.1168 C   0  0  0  0  0  0  0  0  0  0  0  0
   -0.1436    0.4852   -1.5501 C   0  0  0  0  0  0  0  0  0  0  0  0
    0.8695    1.1477   -2.3949 N   0  0  0  0  0  0  0  0  0  0  0  0
    2.2223    1.0578   -1.8247 C   0  0  0  0  0  0  0  0  0  0  0  0
    3.3238    1.1408   -2.8927 C   0  0  0  0  0  0  0  0  0  0  0  0
    3.3239   -0.0399   -3.8686 C   0  0  0  0  0  0  0  0  0  0  0  0
    3.9214   -1.2673   -3.2613 C   0  0  0  0  0  0  0  0  0  0  0  0
    3.3591   -2.0719   -2.3814 N   0  0  0  0  0  0  0  0  0  0  0  0
    4.2942   -3.0397   -2.1105 C   0  0  0  0  0  0  0  0  0  0  0  0
    5.4566   -2.8244   -2.8412 C   0  0  0  0  0  0  0  0  0  0  0  0
    5.1895   -1.6959   -3.5706 N   0  0  0  0  0  0  0  0  0  0  0  0
    6.5793   -3.6510   -2.7585 C   0  0  0  0  0  0  0  0  0  0  0  0
    6.4930   -4.7412   -1.8849 C   0  0  0  0  0  0  0  0  0  0  0  0
    5.3367   -4.9841   -1.1390 C   0  0  0  0  0  0  0  0  0  0  0  0
    4.2247   -4.1377   -1.2416 C   0  0  0  0  0  0  0  0  0  0  0  0
    0.4947    2.5159   -2.7439 C   0  0  0  0  0  0  0  0  0  0  0  0
   -0.8854   -1.0997    1.1000 C   0  0  0  0  0  0  0  0  0  0  0  0
   -0.1410   -1.1796    2.4263 C   0  0  0  0  0  0  0  0  0  0  0  0
   -1.0814   -0.7536    3.5211 C   0  0  0  0  0  0  0  0  0  0  0  0
   -1.8595    0.4161    3.3408 C   0  0  0  0  0  0  0  0  0  0  0  0
   -1.5869    1.2473    2.0790 C   0  0  2  0  0  0  0  0  0  0  0  0
   -2.3616    2.5983    1.8420 C   0  0  0  0  0  0  0  0  0  0  0  0
   -1.9789    3.6712    2.8782 C   0  0  0  0  0  0  0  0  0  0  0  0
   -3.8815    2.5205    1.6818 C   0  0  0  0  0  0  0  0  0  0  0  0
   -2.7622    0.7648    4.3563 C   0  0  0  0  0  0  0  0  0  0  0  0
   -2.8858   -0.0126    5.5118 C   0  0  0  0  0  0  0  0  0  0  0  0
   -2.0974   -1.1420    5.6709 C   0  0  0  0  0  0  0  0  0  0  0  0
   -1.1927   -1.5187    4.6901 C   0  0  0  0  0  0  0  0  0  0  0  0
   -2.2101   -1.8762    6.7856 F   0  0  0  0  0  0  0  0  0  0  0  0
   -3.7478    1.2094   -3.5555 H   0  0  0  0  0  0  0  0  0  0  0  0
   -3.7117    1.7786   -1.8730 H   0  0  0  0  0  0  0  0  0  0  0  0
   -5.2738    1.4741   -2.6909 H   0  0  0  0  0  0  0  0  0  0  0  0
   -5.1361   -1.4221   -0.8283 H   0  0  0  0  0  0  0  0  0  0  0  0
   -5.5189    0.2992   -0.6296 H   0  0  0  0  0  0  0  0  0  0  0  0
   -0.5415    2.1020   -0.2197 H   0  0  0  0  0  0  0  0  0  0  0  0
    0.6703    0.9975    0.4072 H   0  0  0  0  0  0  0  0  0  0  0  0
   -1.1072    0.5382   -2.0712 H   0  0  0  0  0  0  0  0  0  0  0  0
    0.1038   -0.5807   -1.5236 H   0  0  0  0  0  0  0  0  0  0  0  0
    2.3449    0.1124   -1.2825 H   0  0  0  0  0  0  0  0  0  0  0  0
    2.3810    1.8535   -1.0854 H   0  0  0  0  0  0  0  0  0  0  0  0
    4.2970    1.2053   -2.3876 H   0  0  0  0  0  0  0  0  0  0  0  0
    3.2177    2.0713   -3.4623 H   0  0  0  0  0  0  0  0  0  0  0  0
    2.3127   -0.2624   -4.2265 H   0  0  0  0  0  0  0  0  0  0  0  0
    3.9087    0.2430   -4.7535 H   0  0  0  0  0  0  0  0  0  0  0  0
    5.8213   -1.2493   -4.2191 H   0  0  0  0  0  0  0  0  0  0  0  0
    7.4782   -3.4636   -3.3355 H   0  0  0  0  0  0  0  0  0  0  0  0
    7.3432   -5.4132   -1.7856 H   0  0  0  0  0  0  0  0  0  0  0  0
    5.2967   -5.8381   -0.4681 H   0  0  0  0  0  0  0  0  0  0  0  0
    3.3231   -4.3182   -0.6648 H   0  0  0  0  0  0  0  0  0  0  0  0
    0.5377    3.1961   -1.8862 H   0  0  0  0  0  0  0  0  0  0  0  0
   -0.5205    2.5455   -3.1563 H   0  0  0  0  0  0  0  0  0  0  0  0
    1.1495    2.9153   -3.5247 H   0  0  0  0  0  0  0  0  0  0  0  0
   -0.2333   -1.4888    0.3142 H   0  0  0  0  0  0  0  0  0  0  0  0
   -1.7196   -1.8074    1.1253 H   0  0  0  0  0  0  0  0  0  0  0  0
    0.1946   -2.2109    2.5855 H   0  0  0  0  0  0  0  0  0  0  0  0
    0.7496   -0.5419    2.4298 H   0  0  0  0  0  0  0  0  0  0  0  0
   -0.5649    1.6001    2.3044 H   0  0  0  0  0  0  0  0  0  0  0  0
   -2.0003    3.0147    0.8939 H   0  0  0  0  0  0  0  0  0  0  0  0
   -0.8907    3.7582    2.9687 H   0  0  0  0  0  0  0  0  0  0  0  0
   -2.3495    4.6546    2.5625 H   0  0  0  0  0  0  0  0  0  0  0  0
   -2.3854    3.4745    3.8713 H   0  0  0  0  0  0  0  0  0  0  0  0
   -4.3410    3.5063    1.8218 H   0  0  0  0  0  0  0  0  0  0  0  0
   -4.3595    1.8317    2.3799 H   0  0  0  0  0  0  0  0  0  0  0  0
   -4.1493    2.2096    0.6698 H   0  0  0  0  0  0  0  0  0  0  0  0
   -3.3966    1.6400    4.2862 H   0  0  0  0  0  0  0  0  0  0  0  0
   -3.5943    0.2624    6.2880 H   0  0  0  0  0  0  0  0  0  0  0  0
   -0.5974   -2.4133    4.8394 H   0  0  0  0  0  0  0  0  0  0  0  0
  1  2  1  0
  2  3  1  0
  3  4  1  0
  4  5  2  0
  4  6  1  0
  7  6  1  6
  7  8  1  0
  8  9  1  0
  9 10  1  0
 10 11  1  0
 11 12  1  0
 12 13  1  0
 13 14  1  0
 14 15  2  0
 15 16  1  0
 16 17  2  0
 17 18  1  0
 17 19  1  0
 19 20  2  0
 20 21  1  0
 21 22  2  0
 10 23  1  0
  7 24  1  0
 24 25  1  0
 25 26  1  0
 26 27  2  0
 27 28  1  0
 28 29  1  0
 29 30  1  0
 29 31  1  0
 27 32  1  0
 32 33  2  0
 33 34  1  0
 34 35  2  0
 34 36  1  0
 28  7  1  0
 18 14  1  0
 35 26  1  0
 22 16  1  0
  1 37  1  0
  1 38  1  0
  1 39  1  0
  3 40  1  0
  3 41  1  0
  8 42  1  0
  8 43  1  0
  9 44  1  0
  9 45  1  0
 11 46  1  0
 11 47  1  0
 12 48  1  0
 12 49  1  0
 13 50  1  0
 13 51  1  0
 18 52  1  0
 19 53  1  0
 20 54  1  0
 21 55  1  0
 22 56  1  0
 23 57  1  0
 23 58  1  0
 23 59  1  0
 24 60  1  0
 24 61  1  0
 25 62  1  0
 25 63  1  0
 28 64  1  1
 29 65  1  0
 30 66  1  0
 30 67  1  0
 30 68  1  0
 31 69  1  0
 31 70  1  0
 31 71  1  0
 32 72  1  0
 33 73  1  0
 35 74  1  0
M  END
$$$$
