
     RDKit          3D

 75 75  0  0  0  0  0  0  0  0999 V2000
   -3.5102   -0.8965   -2.4786 O   0  0  0  0  0  0  0  0  0  0  0  0
   -3.9512    0.1365   -1.9805 C   0  0  0  0  0  0  0  0  0  0  0  0
   -3.1267    1.1060   -1.1449 C   0  0  1  0  0  0  0  0  0  0  0  0
   -2.3768    0.2912   -0.1889 N   0  0  0  0  0  0  0  0  0  0  0  0
   -2.9575   -0.1143    0.9970 C   0  0  0  0  0  0  0  0  0  0  0  0
   -4.0645    0.2942    1.3459 O   0  0  0  0  0  0  0  0  0  0  0  0
   -2.1830   -1.2057    1.7765 C   0  0  1  0  0  0  0  0  0  0  0  0
   -0.7450   -1.1234    1.5267 N   0  0  0  0  0  0  0  0  0  0  0  0
   -0.0860   -1.9869    0.6791 C   0  0  0  0  0  0  0  0  0  0  0  0
   -0.6254   -2.9720    0.1835 O   0  0  0  0  0  0  0  0  0  0  0  0
    1.4319   -1.7237    0.5461 C   0  0  1  0  0  0  0  0  0  0  0  0
    1.7443   -0.3075    0.7702 N   0  0  0  0  0  0  0  0  0  0  0  0
    1.4297    0.6179   -0.1846 C   0  0  0  0  0  0  0  0  0  0  0  0
    0.6669    0.4220   -1.1167 O   0  0  0  0  0  0  0  0  0  0  0  0
    2.0893    1.7638    0.0852 O   0  0  0  0  0  0  0  0  0  0  0  0
    1.8789    2.8436   -0.8332 C   0  0  0  0  0  0  0  0  0  0  0  0
    3.1111    3.0184   -1.6818 C   0  0  0  0  0  0  0  0  0  0  0  0
    3.2457    2.3129   -2.8862 C   0  0  0  0  0  0  0  0  0  0  0  0
    4.3885    2.4702   -3.6721 C   0  0  0  0  0  0  0  0  0  0  0  0
    5.4072    3.3260   -3.2592 C   0  0  0  0  0  0  0  0  0  0  0  0
    5.2927    4.0187   -2.0538 C   0  0  0  0  0  0  0  0  0  0  0  0
    4.1513    3.8627   -1.2657 C   0  0  0  0  0  0  0  0  0  0  0  0
    2.1770   -2.6128    1.5626 C   0  0  0  0  0  0  0  0  0  0  0  0
    3.1065   -3.6739    0.9360 C   0  0  0  0  0  0  0  0  0  0  0  0
    2.3416   -4.6904    0.0866 C   0  0  0  0  0  0  0  0  0  0  0  0
    4.2481   -3.0426    0.1368 C   0  0  0  0  0  0  0  0  0  0  0  0
   -2.4775   -1.0815    3.2822 C   0  0  0  0  0  0  0  0  0  0  0  0
   -1.7910   -2.1426    4.1671 C   0  0  0  0  0  0  0  0  0  0  0  0
   -2.2783   -3.5592    3.8604 C   0  0  0  0  0  0  0  0  0  0  0  0
   -2.0361   -1.8199    5.6444 C   0  0  0  0  0  0  0  0  0  0  0  0
   -2.1587    1.9247   -2.0058 C   0  0  0  0  0  0  0  0  0  0  0  0
   -2.7529    3.0748   -2.8445 C   0  0  0  0  0  0  0  0  0  0  0  0
   -3.4241    4.1424   -1.9794 C   0  0  0  0  0  0  0  0  0  0  0  0
   -3.7013    2.6047   -3.9447 C   0  0  0  0  0  0  0  0  0  0  0  0
   -5.0028    0.4308   -2.1376 H   0  0  0  0  0  0  0  0  0  0  0  0
   -3.8107    1.7532   -0.5881 H   0  0  0  0  0  0  0  0  0  0  0  0
   -1.6766   -0.3322   -0.5873 H   0  0  0  0  0  0  0  0  0  0  0  0
   -2.5635   -2.1615    1.4004 H   0  0  0  0  0  0  0  0  0  0  0  0
   -0.2680   -0.2598    1.7556 H   0  0  0  0  0  0  0  0  0  0  0  0
    1.7010   -1.9497   -0.4918 H   0  0  0  0  0  0  0  0  0  0  0  0
    2.5989   -0.0663    1.2549 H   0  0  0  0  0  0  0  0  0  0  0  0
    0.9898    2.7168   -1.4627 H   0  0  0  0  0  0  0  0  0  0  0  0
    1.7001    3.7475   -0.2391 H   0  0  0  0  0  0  0  0  0  0  0  0
    2.4596    1.6373   -3.2179 H   0  0  0  0  0  0  0  0  0  0  0  0
    4.4820    1.9247   -4.6082 H   0  0  0  0  0  0  0  0  0  0  0  0
    6.2955    3.4490   -3.8741 H   0  0  0  0  0  0  0  0  0  0  0  0
    6.0916    4.6815   -1.7297 H   0  0  0  0  0  0  0  0  0  0  0  0
    4.0769    4.4069   -0.3253 H   0  0  0  0  0  0  0  0  0  0  0  0
    1.4604   -3.1367    2.2116 H   0  0  0  0  0  0  0  0  0  0  0  0
    2.7825   -1.9972    2.2402 H   0  0  0  0  0  0  0  0  0  0  0  0
    3.5650   -4.2254    1.7701 H   0  0  0  0  0  0  0  0  0  0  0  0
    3.0084   -5.4947   -0.2433 H   0  0  0  0  0  0  0  0  0  0  0  0
    1.9085   -4.2315   -0.8070 H   0  0  0  0  0  0  0  0  0  0  0  0
    1.5319   -5.1454    0.6673 H   0  0  0  0  0  0  0  0  0  0  0  0
    4.8140   -2.3447    0.7637 H   0  0  0  0  0  0  0  0  0  0  0  0
    4.9430   -3.8143   -0.2128 H   0  0  0  0  0  0  0  0  0  0  0  0
    3.8877   -2.4987   -0.7420 H   0  0  0  0  0  0  0  0  0  0  0  0
   -2.1592   -0.0836    3.6200 H   0  0  0  0  0  0  0  0  0  0  0  0
   -3.5627   -1.1258    3.4489 H   0  0  0  0  0  0  0  0  0  0  0  0
   -0.7074   -2.1083    3.9988 H   0  0  0  0  0  0  0  0  0  0  0  0
   -1.8092   -4.2863    4.5342 H   0  0  0  0  0  0  0  0  0  0  0  0
   -2.0271   -3.8535    2.8380 H   0  0  0  0  0  0  0  0  0  0  0  0
   -3.3647   -3.6406    3.9813 H   0  0  0  0  0  0  0  0  0  0  0  0
   -1.6581   -0.8203    5.8893 H   0  0  0  0  0  0  0  0  0  0  0  0
   -1.5210   -2.5389    6.2896 H   0  0  0  0  0  0  0  0  0  0  0  0
   -3.1033   -1.8474    5.8903 H   0  0  0  0  0  0  0  0  0  0  0  0
   -1.4097    2.3702   -1.3352 H   0  0  0  0  0  0  0  0  0  0  0  0
   -1.5989    1.2571   -2.6764 H   0  0  0  0  0  0  0  0  0  0  0  0
   -1.9015    3.5595   -3.3433 H   0  0  0  0  0  0  0  0  0  0  0  0
   -2.7439    4.4933   -1.1986 H   0  0  0  0  0  0  0  0  0  0  0  0
   -4.3341    3.7632   -1.5027 H   0  0  0  0  0  0  0  0  0  0  0  0
   -3.7070    5.0079   -2.5889 H   0  0  0  0  0  0  0  0  0  0  0  0
   -3.8808    3.4153   -4.6601 H   0  0  0  0  0  0  0  0  0  0  0  0
   -4.6735    2.3075   -3.5465 H   0  0  0  0  0  0  0  0  0  0  0  0
   -3.2778    1.7633   -4.5014 H   0  0  0  0  0  0  0  0  0  0  0  0
  1  2  2  0
  2  3  1  0
  3  4  1  0
  4  5  1  0
  5  6  2  0
  5  7  1  0
  7  8  1  0
  8  9  1  0
  9 10  2  0
  9 11  1  0
 11 12  1  0
 12 13  1  0
 13 14  2  0
 13 15  1  0
 15 16  1  0
 16 17  1  0
 17 18  2  0
 18 19  1  0
 19 20  2  0
 20 21  1  0
 21 22  2  0
 11 23  1  0
 23 24  1  0
 24 25  1  0
 24 26  1  0
  7 27  1  0
 27 28  1  0
 28 29  1  0
 28 30  1  0
  3 31  1  0
 31 32  1  0
 32 33  1  0
 32 34  1  0
 22 17  1  0
  2 35  1  0
  3 36  1  1
  4 37  1  0
  7 38  1  6
  8 39  1  0
 11 40  1  6
 12 41  1  0
 16 42  1  0
 16 43  1  0
 18 44  1  0
 19 45  1  0
 20 46  1  0
 21 47  1  0
 22 48  1  0
 23 49  1  0
 23 50  1  0
 24 51  1  0
 25 52  1  0
 25 53  1  0
 25 54  1  0
 26 55  1  0
 26 56  1  0
 26 57  1  0
 27 58  1  0
 27 59  1  0
 28 60  1  0
 29 61  1  0
 29 62  1  0
 29 63  1  0
 30 64  1  0
 30 65  1  0
 30 66  1  0
 31 67  1  0
 31 68  1  0
 32 69  1  0
 33 70  1  0
 33 71  1  0
 33 72  1  0
 34 73  1  0
 34 74  1  0
 34 75  1  0
M  END
$$$$
