
     RDKit          3D

 50 53  0  0  0  0  0  0  0  0999 V2000
    0.8676   -0.0367   -1.6783 O   0  0  0  0  0  0  0  0  0  0  0  0
    0.6003   -0.6427   -0.6359 C   0  0  0  0  0  0  0  0  0  0  0  0
    1.5342   -1.0513    0.3384 N   0  0  0  0  0  0  0  0  0  0  0  0
    2.9090   -0.7899    0.1961 C   0  0  0  0  0  0  0  0  0  0  0  0
    3.7684   -0.9370    1.1923 N   0  0  0  0  0  0  0  0  0  0  0  0
    5.0440   -0.6338    0.7695 C   0  0  0  0  0  0  0  0  0  0  0  0
    5.1507   -0.2712   -0.5557 C   0  0  0  0  0  0  0  0  0  0  0  0
    3.6299   -0.3328   -1.2967 S   0  0  0  0  0  0  0  0  0  0  0  0
    6.4162    0.0866   -1.2563 C   0  0  0  0  0  0  0  0  0  0  0  0
    7.5130    0.4069   -0.2177 C   0  0  0  0  0  0  0  0  0  0  0  0
    7.5414   -0.6308    0.9225 C   0  0  0  0  0  0  0  0  0  0  0  0
    6.2090   -0.6693    1.6983 C   0  0  0  0  0  0  0  0  0  0  0  0
    1.0879   -1.6012    1.6229 C   0  0  0  0  0  0  0  0  0  0  0  0
   -0.8784   -0.9830   -0.3278 C   0  0  0  0  0  0  0  0  0  0  0  0
   -1.7885   -0.5804   -1.3514 O   0  0  0  0  0  0  0  0  0  0  0  0
   -2.4363    0.5733   -1.0170 C   0  0  0  0  0  0  0  0  0  0  0  0
   -1.8393    1.8177   -1.2372 C   0  0  0  0  0  0  0  0  0  0  0  0
   -2.5392    2.9982   -0.9416 C   0  0  0  0  0  0  0  0  0  0  0  0
   -3.8461    2.9454   -0.4457 C   0  0  0  0  0  0  0  0  0  0  0  0
   -4.4309    1.7006   -0.2593 C   0  0  0  0  0  0  0  0  0  0  0  0
   -3.7363    0.5361   -0.5408 C   0  0  0  0  0  0  0  0  0  0  0  0
   -4.4557   -0.6058   -0.2899 O   0  0  0  0  0  0  0  0  0  0  0  0
   -5.8194   -0.1482   -0.0581 C   0  0  0  0  0  0  0  0  0  0  0  0
   -5.7816    1.3653    0.2556 C   0  0  0  0  0  0  0  0  0  0  0  0
   -6.6359   -0.4478   -1.3224 C   0  0  0  0  0  0  0  0  0  0  0  0
   -6.3831   -0.9443    1.1252 C   0  0  0  0  0  0  0  0  0  0  0  0
    6.2761    0.9472   -1.9226 H   0  0  0  0  0  0  0  0  0  0  0  0
    6.7381   -0.7652   -1.8713 H   0  0  0  0  0  0  0  0  0  0  0  0
    8.4884    0.4459   -0.7142 H   0  0  0  0  0  0  0  0  0  0  0  0
    7.3307    1.3981    0.2148 H   0  0  0  0  0  0  0  0  0  0  0  0
    8.3606   -0.4046    1.6149 H   0  0  0  0  0  0  0  0  0  0  0  0
    7.7431   -1.6233    0.4967 H   0  0  0  0  0  0  0  0  0  0  0  0
    6.1714   -1.5675    2.3241 H   0  0  0  0  0  0  0  0  0  0  0  0
    6.1503    0.2024    2.3598 H   0  0  0  0  0  0  0  0  0  0  0  0
    1.9028   -2.0962    2.1611 H   0  0  0  0  0  0  0  0  0  0  0  0
    0.3081   -2.3537    1.4705 H   0  0  0  0  0  0  0  0  0  0  0  0
    0.6909   -0.7843    2.2351 H   0  0  0  0  0  0  0  0  0  0  0  0
   -1.1580   -0.5688    0.6511 H   0  0  0  0  0  0  0  0  0  0  0  0
   -0.9612   -2.0736   -0.2763 H   0  0  0  0  0  0  0  0  0  0  0  0
   -0.8340    1.8768   -1.6510 H   0  0  0  0  0  0  0  0  0  0  0  0
   -2.0585    3.9583   -1.1118 H   0  0  0  0  0  0  0  0  0  0  0  0
   -4.3879    3.8591   -0.2227 H   0  0  0  0  0  0  0  0  0  0  0  0
   -6.5765    1.9217   -0.2568 H   0  0  0  0  0  0  0  0  0  0  0  0
   -5.8279    1.5675    1.3350 H   0  0  0  0  0  0  0  0  0  0  0  0
   -6.6204   -1.5190   -1.5526 H   0  0  0  0  0  0  0  0  0  0  0  0
   -6.2119    0.0587   -2.1970 H   0  0  0  0  0  0  0  0  0  0  0  0
   -7.6764   -0.1327   -1.2111 H   0  0  0  0  0  0  0  0  0  0  0  0
   -6.3771   -2.0216    0.9134 H   0  0  0  0  0  0  0  0  0  0  0  0
   -5.7621   -0.8064    2.0225 H   0  0  0  0  0  0  0  0  0  0  0  0
   -7.4096   -0.6425    1.3585 H   0  0  0  0  0  0  0  0  0  0  0  0
  1  2  2  0
  2  3  1  0
  3  4  1  0
  4  5  2  0
  5  6  1  0
  6  7  2  0
  7  8  1  0
  7  9  1  0
  9 10  1  0
 10 11  1  0
 11 12  1  0
  3 13  1  0
  2 14  1  0
 14 15  1  0
 15 16  1  0
 16 17  2  0
 17 18  1  0
 18 19  2  0
 19 20  1  0
 20 21  2  0
 21 22  1  0
 22 23  1  0
 23 24  1  0
 23 25  1  0
 23 26  1  0
  8  4  1  0
 21 16  1  0
 12  6  1  0
 24 20  1  0
  9 27  1  0
  9 28  1  0
 10 29  1  0
 10 30  1  0
 11 31  1  0
 11 32  1  0
 12 33  1  0
 12 34  1  0
 13 35  1  0
 13 36  1  0
 13 37  1  0
 14 38  1  0
 14 39  1  0
 17 40  1  0
 18 41  1  0
 19 42  1  0
 24 43  1  0
 24 44  1  0
 25 45  1  0
 25 46  1  0
 25 47  1  0
 26 48  1  0
 26 49  1  0
 26 50  1  0
M  END
$$$$
