
     RDKit          3D

 38 40  0  0  0  0  0  0  0  0999 V2000
   -0.0701    3.1345    1.5621 O   0  0  0  0  0  0  0  0  0  0  0  0
    0.0016    2.0027    0.6699 C   0  0  0  0  0  0  0  0  0  0  0  0
   -1.4096    1.6507    0.2318 C   0  0  0  0  0  0  0  0  0  0  0  0
   -2.2110    2.8117    0.0345 O   0  0  0  0  0  0  0  0  0  0  0  0
   -1.8889    0.8000    1.4017 C   0  0  2  0  0  0  0  0  0  0  0  0
   -0.7447    0.0400    1.8409 O   0  0  0  0  0  0  0  0  0  0  0  0
    0.4468    0.7305    1.4054 C   0  0  1  0  0  0  0  0  0  0  0  0
    1.2156   -0.2060    0.5361 C   0  0  0  0  0  0  0  0  0  0  0  0
    0.8786   -1.4191   -0.0425 C   0  0  0  0  0  0  0  0  0  0  0  0
    2.0042   -1.8782   -0.7684 C   0  0  0  0  0  0  0  0  0  0  0  0
    2.9901   -0.9284   -0.6145 C   0  0  0  0  0  0  0  0  0  0  0  0
    2.5125    0.0710    0.1772 N   0  0  0  0  0  0  0  0  0  0  0  0
    3.2146    1.1654    0.5260 N   0  0  0  0  0  0  0  0  0  0  0  0
    4.4211    1.1827    0.0465 C   0  0  0  0  0  0  0  0  0  0  0  0
    5.0100    0.2396   -0.7600 N   0  0  0  0  0  0  0  0  0  0  0  0
    4.3269   -0.8125   -1.0938 C   0  0  0  0  0  0  0  0  0  0  0  0
    4.9208   -1.7405   -1.8991 N   0  0  0  0  0  0  0  0  0  0  0  0
   -3.0506   -0.1283    1.0541 C   0  0  0  0  0  0  0  0  0  0  0  0
   -2.7269   -0.9381   -0.0688 O   0  0  0  0  0  0  0  0  0  0  0  0
   -3.8793   -1.8237   -0.7272 P   0  0  0  0  0  0  0  0  0  0  0  0
   -3.4655   -2.7288   -1.8351 O   0  0  0  0  0  0  0  0  0  0  0  0
   -4.5853   -2.5913    0.4794 O   0  0  0  0  0  0  0  0  0  0  0  0
   -4.9989   -0.7789   -1.1747 O   0  0  0  0  0  0  0  0  0  0  0  0
    0.8422    3.2982    1.8674 H   0  0  0  0  0  0  0  0  0  0  0  0
    0.6361    2.3015   -0.1701 H   0  0  0  0  0  0  0  0  0  0  0  0
   -1.3774    1.0781   -0.7013 H   0  0  0  0  0  0  0  0  0  0  0  0
   -1.8470    3.4762    0.6576 H   0  0  0  0  0  0  0  0  0  0  0  0
   -2.2000    1.4354    2.2409 H   0  0  0  0  0  0  0  0  0  0  0  0
    1.0246    0.9681    2.3060 H   0  0  0  0  0  0  0  0  0  0  0  0
   -0.0777   -1.9194    0.0604 H   0  0  0  0  0  0  0  0  0  0  0  0
    2.0781   -2.8001   -1.3297 H   0  0  0  0  0  0  0  0  0  0  0  0
    5.0565    2.0482    0.3014 H   0  0  0  0  0  0  0  0  0  0  0  0
    4.3002   -2.2616   -2.5054 H   0  0  0  0  0  0  0  0  0  0  0  0
    5.7444   -1.3828   -2.3688 H   0  0  0  0  0  0  0  0  0  0  0  0
   -3.2585   -0.7895    1.9016 H   0  0  0  0  0  0  0  0  0  0  0  0
   -3.9448    0.4633    0.8339 H   0  0  0  0  0  0  0  0  0  0  0  0
   -5.0888   -3.3562    0.1486 H   0  0  0  0  0  0  0  0  0  0  0  0
   -4.7997   -0.4142   -2.0564 H   0  0  0  0  0  0  0  0  0  0  0  0
  1  2  1  0
  2  3  1  0
  3  4  1  0
  3  5  1  0
  5  6  1  0
  6  7  1  0
  7  8  1  0
  8  9  2  0
  9 10  1  0
 10 11  2  0
 11 12  1  0
 12 13  1  0
 13 14  2  0
 14 15  1  0
 15 16  2  0
 16 17  1  0
  5 18  1  0
 18 19  1  0
 19 20  1  0
 20 21  2  0
 20 22  1  0
 20 23  1  0
  7  2  1  0
 12  8  1  0
 16 11  1  0
  1 24  1  0
  2 25  1  0
  3 26  1  0
  4 27  1  0
  5 28  1  1
  7 29  1  1
  9 30  1  0
 10 31  1  0
 14 32  1  0
 17 33  1  0
 17 34  1  0
 18 35  1  0
 18 36  1  0
 22 37  1  0
 23 38  1  0
M  END
$$$$
