
     RDKit          3D

 54 61  0  0  0  0  0  0  0  0999 V2000
    4.5752    0.1119   -0.8585 C   0  0  0  0  0  0  0  0  0  0  0  0
    3.5030    0.9494   -0.2138 C   0  0  0  0  0  0  0  0  0  0  0  0
    3.7119    2.2693   -0.1046 C   0  0  0  0  0  0  0  0  0  0  0  0
    2.6054    3.1742    0.2254 C   0  0  0  0  0  0  0  0  0  0  0  0
    2.8095    4.3541    0.4896 O   0  0  0  0  0  0  0  0  0  0  0  0
    1.2342    2.6283    0.1320 C   0  0  0  0  0  0  0  0  0  0  0  0
    1.0488    1.2411    0.0619 C   0  0  0  0  0  0  0  0  0  0  0  0
    2.1648    0.3748    0.1186 C   0  0  0  0  0  0  0  0  0  0  0  0
    1.9429   -0.9853    0.3877 C   0  0  0  0  0  0  0  0  0  0  0  0
    2.9533   -1.8809    1.0268 C   0  0  0  0  0  0  0  0  0  0  0  0
    2.8270   -3.2119    0.9274 C   0  0  0  0  0  0  0  0  0  0  0  0
    1.6417   -3.8031    0.2971 C   0  0  0  0  0  0  0  0  0  0  0  0
    1.5897   -5.0032    0.0508 O   0  0  0  0  0  0  0  0  0  0  0  0
    0.4846   -2.9120    0.0626 C   0  0  0  0  0  0  0  0  0  0  0  0
    0.6600   -1.5238    0.1325 C   0  0  0  0  0  0  0  0  0  0  0  0
   -0.4625   -0.6742   -0.0902 C   0  0  0  0  0  0  0  0  0  0  0  0
   -0.2763    0.7253   -0.0326 C   0  0  0  0  0  0  0  0  0  0  0  0
   -1.3973    1.6040   -0.0788 C   0  0  0  0  0  0  0  0  0  0  0  0
   -1.1729    3.0162    0.0547 C   0  0  0  0  0  0  0  0  0  0  0  0
    0.1462    3.5000    0.1512 C   0  0  0  0  0  0  0  0  0  0  0  0
    0.3316    4.8655    0.2680 O   0  0  0  0  0  0  0  0  0  0  0  0
   -2.2788    3.8835    0.0965 C   0  0  0  0  0  0  0  0  0  0  0  0
   -2.1761    5.2444    0.2183 O   0  0  0  0  0  0  0  0  0  0  0  0
   -3.5646    3.4040    0.0523 C   0  0  0  0  0  0  0  0  0  0  0  0
   -3.7679    2.0372   -0.0852 C   0  0  0  0  0  0  0  0  0  0  0  0
   -2.7168    1.0764   -0.2392 C   0  0  0  0  0  0  0  0  0  0  0  0
   -2.8866   -0.3593   -0.5107 C   0  0  0  0  0  0  0  0  0  0  0  0
   -1.7535   -1.2222   -0.3565 C   0  0  0  0  0  0  0  0  0  0  0  0
   -1.8799   -2.6488   -0.4810 C   0  0  0  0  0  0  0  0  0  0  0  0
   -0.7534   -3.4657   -0.2600 C   0  0  0  0  0  0  0  0  0  0  0  0
   -0.9084   -4.8354   -0.3745 O   0  0  0  0  0  0  0  0  0  0  0  0
   -3.1245   -3.1981   -0.8351 C   0  0  0  0  0  0  0  0  0  0  0  0
   -3.3511   -4.5418   -0.9804 O   0  0  0  0  0  0  0  0  0  0  0  0
   -4.2047   -2.3944   -1.0980 C   0  0  0  0  0  0  0  0  0  0  0  0
   -4.0837   -1.0190   -0.9531 C   0  0  0  0  0  0  0  0  0  0  0  0
   -5.2245   -0.3831   -1.3724 O   0  0  0  0  0  0  0  0  0  0  0  0
   -5.0796    1.6319   -0.0031 O   0  0  0  0  0  0  0  0  0  0  0  0
    4.0101   -1.3352    1.9498 C   0  0  0  0  0  0  0  0  0  0  0  0
    5.3873   -0.1036   -0.1611 H   0  0  0  0  0  0  0  0  0  0  0  0
    4.1892   -0.8250   -1.2705 H   0  0  0  0  0  0  0  0  0  0  0  0
    5.0179    0.6498   -1.7064 H   0  0  0  0  0  0  0  0  0  0  0  0
    4.6598    2.7406   -0.3399 H   0  0  0  0  0  0  0  0  0  0  0  0
    3.5256   -3.9088    1.3769 H   0  0  0  0  0  0  0  0  0  0  0  0
    1.2937    5.0455    0.3995 H   0  0  0  0  0  0  0  0  0  0  0  0
   -1.2193    5.4569    0.2456 H   0  0  0  0  0  0  0  0  0  0  0  0
   -4.3912    4.1039    0.1282 H   0  0  0  0  0  0  0  0  0  0  0  0
   -0.0265   -5.2665   -0.2705 H   0  0  0  0  0  0  0  0  0  0  0  0
   -2.5071   -4.9960   -0.7795 H   0  0  0  0  0  0  0  0  0  0  0  0
   -5.1440   -2.8315   -1.4256 H   0  0  0  0  0  0  0  0  0  0  0  0
   -5.2131    0.5188   -1.0086 H   0  0  0  0  0  0  0  0  0  0  0  0
   -5.6086    2.3452    0.4023 H   0  0  0  0  0  0  0  0  0  0  0  0
    3.7950   -0.3157    2.2828 H   0  0  0  0  0  0  0  0  0  0  0  0
    4.9991   -1.3670    1.4880 H   0  0  0  0  0  0  0  0  0  0  0  0
    4.0653   -1.9411    2.8630 H   0  0  0  0  0  0  0  0  0  0  0  0
  1  2  1  0
  2  3  2  0
  3  4  1  0
  4  5  2  0
  4  6  1  0
  6  7  1  0
  7  8  2  0
  8  9  1  0
  9 10  1  0
 10 11  2  0
 11 12  1  0
 12 13  2  0
 12 14  1  0
 14 15  1  0
 15 16  1  0
 16 17  2  0
 17 18  1  0
 18 19  2  0
 19 20  1  0
 20 21  1  0
 19 22  1  0
 22 23  1  0
 22 24  2  0
 24 25  1  0
 25 26  2  0
 26 27  1  0
 27 28  2  0
 28 29  1  0
 29 30  1  0
 30 31  1  0
 29 32  2  0
 32 33  1  0
 32 34  1  0
 34 35  2  0
 35 36  1  0
 25 37  1  0
 10 38  1  0
  8  2  1  0
 15  9  2  0
 28 16  1  0
 20  6  2  0
 35 27  1  0
 17  7  1  0
 26 18  1  0
 30 14  2  0
  1 39  1  0
  1 40  1  0
  1 41  1  0
  3 42  1  0
 11 43  1  0
 21 44  1  0
 23 45  1  0
 24 46  1  0
 31 47  1  0
 33 48  1  0
 34 49  1  0
 36 50  1  0
 37 51  1  0
 38 52  1  0
 38 53  1  0
 38 54  1  0
M  END
$$$$
