
     RDKit          3D

 74 78  0  0  0  0  0  0  0  0999 V2000
   -4.0163    3.9743    1.6504 O   0  0  0  0  0  0  0  0  0  0  0  0
   -5.2085    3.4955    1.0214 C   0  0  0  0  0  0  0  0  0  0  0  0
   -4.8716    2.7739   -0.2850 C   0  0  1  0  0  0  0  0  0  0  0  0
   -4.1215    1.5946    0.0500 O   0  0  0  0  0  0  0  0  0  0  0  0
   -3.5278    1.0102   -1.1138 C   0  0  1  0  0  0  0  0  0  0  0  0
   -2.7003   -0.0970   -0.7438 O   0  0  0  0  0  0  0  0  0  0  0  0
   -1.5047    0.1531   -0.0831 C   0  0  0  0  0  0  0  0  0  0  0  0
   -0.5803   -0.8212    0.0439 C   0  0  0  0  0  0  0  0  0  0  0  0
    0.6463   -0.6595    0.6645 O   0  0  0  0  0  0  0  0  0  0  0  0
    0.7985    0.3888    1.5294 C   0  0  0  0  0  0  0  0  0  0  0  0
   -0.0861    1.4598    1.5579 C   0  0  0  0  0  0  0  0  0  0  0  0
   -1.1498    1.4807    0.5306 C   0  0  0  0  0  0  0  0  0  0  0  0
   -1.6750    2.5373    0.1981 O   0  0  0  0  0  0  0  0  0  0  0  0
    0.0801    2.4671    2.5221 C   0  0  0  0  0  0  0  0  0  0  0  0
   -0.8167    3.4938    2.6086 O   0  0  0  0  0  0  0  0  0  0  0  0
    1.1399    2.4128    3.4325 C   0  0  0  0  0  0  0  0  0  0  0  0
    2.0425    1.3593    3.3637 C   0  0  0  0  0  0  0  0  0  0  0  0
    1.8876    0.3636    2.4018 C   0  0  0  0  0  0  0  0  0  0  0  0
    2.7974   -0.6574    2.3387 O   0  0  0  0  0  0  0  0  0  0  0  0
    3.9255   -0.2634    1.5383 C   0  0  2  0  0  0  0  0  0  0  0  0
    3.7307   -0.6568    0.1819 O   0  0  0  0  0  0  0  0  0  0  0  0
    4.8118   -0.2915   -0.6793 C   0  0  2  0  0  0  0  0  0  0  0  0
    4.4493   -0.7274   -2.0996 C   0  0  0  0  0  0  0  0  0  0  0  0
    3.3414   -0.9909   -2.5360 O   0  0  0  0  0  0  0  0  0  0  0  0
    5.5077   -0.7505   -2.9445 O   0  0  0  0  0  0  0  0  0  0  0  0
    6.1254   -0.9436   -0.2150 C   0  0  2  0  0  0  0  0  0  0  0  0
    6.3678   -0.6364    1.2665 C   0  0  1  0  0  0  0  0  0  0  0  0
    5.1532   -0.9690    2.1276 C   0  0  1  0  0  0  0  0  0  0  0  0
    5.3889   -0.5361    3.4794 O   0  0  0  0  0  0  0  0  0  0  0  0
    7.5028   -1.3743    1.7478 O   0  0  0  0  0  0  0  0  0  0  0  0
    7.2729   -0.4392   -0.9206 O   0  0  0  0  0  0  0  0  0  0  0  0
    3.0733    1.3344    4.2596 O   0  0  0  0  0  0  0  0  0  0  0  0
   -0.7562   -2.1903   -0.4908 C   0  0  0  0  0  0  0  0  0  0  0  0
   -1.9047   -2.9491   -0.1966 C   0  0  0  0  0  0  0  0  0  0  0  0
   -2.0362   -4.2666   -0.6503 C   0  0  0  0  0  0  0  0  0  0  0  0
   -1.0078   -4.8310   -1.3922 C   0  0  0  0  0  0  0  0  0  0  0  0
    0.1354   -4.0933   -1.6861 C   0  0  0  0  0  0  0  0  0  0  0  0
    0.2728   -2.7838   -1.2402 C   0  0  0  0  0  0  0  0  0  0  0  0
    1.1441   -4.6697   -2.4075 O   0  0  0  0  0  0  0  0  0  0  0  0
   -1.0694   -6.1187   -1.8458 O   0  0  0  0  0  0  0  0  0  0  0  0
   -4.6621    0.4733   -2.0153 C   0  0  1  0  0  0  0  0  0  0  0  0
   -5.6549    1.5966   -2.3370 C   0  0  2  0  0  0  0  0  0  0  0  0
   -6.1100    2.3423   -1.0736 C   0  0  2  0  0  0  0  0  0  0  0  0
   -6.9042    3.4659   -1.4615 O   0  0  0  0  0  0  0  0  0  0  0  0
   -6.8103    1.0490   -2.9999 O   0  0  0  0  0  0  0  0  0  0  0  0
   -4.1563   -0.0537   -3.2524 O   0  0  0  0  0  0  0  0  0  0  0  0
   -3.2736    3.3998    1.3597 H   0  0  0  0  0  0  0  0  0  0  0  0
   -5.8566    4.3603    0.8448 H   0  0  0  0  0  0  0  0  0  0  0  0
   -5.6996    2.8182    1.7286 H   0  0  0  0  0  0  0  0  0  0  0  0
   -4.2433    3.4490   -0.8827 H   0  0  0  0  0  0  0  0  0  0  0  0
   -2.9279    1.7329   -1.6832 H   0  0  0  0  0  0  0  0  0  0  0  0
   -0.5889    4.0877    3.3419 H   0  0  0  0  0  0  0  0  0  0  0  0
    1.2772    3.1752    4.1928 H   0  0  0  0  0  0  0  0  0  0  0  0
    4.0778    0.8241    1.5859 H   0  0  0  0  0  0  0  0  0  0  0  0
    4.9016    0.8024   -0.7090 H   0  0  0  0  0  0  0  0  0  0  0  0
    5.0933   -1.0185   -3.7964 H   0  0  0  0  0  0  0  0  0  0  0  0
    6.1020   -2.0309   -0.3682 H   0  0  0  0  0  0  0  0  0  0  0  0
    6.6354    0.4209    1.3967 H   0  0  0  0  0  0  0  0  0  0  0  0
    4.9967   -2.0529    2.1649 H   0  0  0  0  0  0  0  0  0  0  0  0
    6.3043   -0.8386    3.6775 H   0  0  0  0  0  0  0  0  0  0  0  0
    8.2041   -1.2286    1.0802 H   0  0  0  0  0  0  0  0  0  0  0  0
    7.0981   -0.5769   -1.8770 H   0  0  0  0  0  0  0  0  0  0  0  0
    3.5724    0.4949    4.1484 H   0  0  0  0  0  0  0  0  0  0  0  0
   -2.7029   -2.5213    0.4057 H   0  0  0  0  0  0  0  0  0  0  0  0
   -2.9284   -4.8268   -0.3979 H   0  0  0  0  0  0  0  0  0  0  0  0
    1.1843   -2.2325   -1.4666 H   0  0  0  0  0  0  0  0  0  0  0  0
    0.8376   -5.5840   -2.5505 H   0  0  0  0  0  0  0  0  0  0  0  0
   -1.9253   -6.4926   -1.5748 H   0  0  0  0  0  0  0  0  0  0  0  0
   -5.1764   -0.3532   -1.5075 H   0  0  0  0  0  0  0  0  0  0  0  0
   -5.2041    2.3095   -3.0417 H   0  0  0  0  0  0  0  0  0  0  0  0
   -6.7428    1.6818   -0.4646 H   0  0  0  0  0  0  0  0  0  0  0  0
   -7.6985    3.0945   -1.8891 H   0  0  0  0  0  0  0  0  0  0  0  0
   -6.7134    1.2613   -3.9476 H   0  0  0  0  0  0  0  0  0  0  0  0
   -4.8678   -0.6115   -3.6151 H   0  0  0  0  0  0  0  0  0  0  0  0
  1  2  1  0
  2  3  1  0
  3  4  1  0
  4  5  1  0
  5  6  1  0
  6  7  1  0
  7  8  2  0
  8  9  1  0
  9 10  1  0
 10 11  2  0
 11 12  1  0
 12 13  2  0
 11 14  1  0
 14 15  1  0
 14 16  2  0
 16 17  1  0
 17 18  2  0
 18 19  1  0
 19 20  1  0
 20 21  1  0
 21 22  1  0
 22 23  1  0
 23 24  2  0
 23 25  1  0
 22 26  1  0
 26 27  1  0
 27 28  1  0
 28 29  1  0
 27 30  1  0
 26 31  1  0
 17 32  1  0
  8 33  1  0
 33 34  2  0
 34 35  1  0
 35 36  2  0
 36 37  1  0
 37 38  2  0
 37 39  1  0
 36 40  1  0
  5 41  1  0
 41 42  1  0
 42 43  1  0
 43 44  1  0
 42 45  1  0
 41 46  1  0
 43  3  1  0
 12  7  1  0
 28 20  1  0
 38 33  1  0
 18 10  1  0
  1 47  1  0
  2 48  1  0
  2 49  1  0
  3 50  1  6
  5 51  1  6
 15 52  1  0
 16 53  1  0
 20 54  1  6
 22 55  1  6
 25 56  1  0
 26 57  1  1
 27 58  1  6
 28 59  1  1
 29 60  1  0
 30 61  1  0
 31 62  1  0
 32 63  1  0
 34 64  1  0
 35 65  1  0
 38 66  1  0
 39 67  1  0
 40 68  1  0
 41 69  1  1
 42 70  1  6
 43 71  1  1
 44 72  1  0
 45 73  1  0
 46 74  1  0
M  END
$$$$
