
     RDKit          3D

 31 33  0  0  0  0  0  0  0  0999 V2000
    0.1849   -0.7835   -2.7797 O   0  0  0  0  0  0  0  0  0  0  0  0
   -0.0111    0.2659   -2.1784 C   0  0  0  0  0  0  0  0  0  0  0  0
   -0.2226    1.4579   -2.8021 N   0  0  0  0  0  0  0  0  0  0  0  0
   -0.5077    2.4189   -1.9014 C   0  0  0  0  0  0  0  0  0  0  0  0
   -0.8464    3.5610   -2.1538 O   0  0  0  0  0  0  0  0  0  0  0  0
   -0.3803    1.9019   -0.6421 N   0  0  0  0  0  0  0  0  0  0  0  0
   -0.0838    0.4767   -0.6318 C   0  0  0  0  0  0  0  0  0  0  0  0
    1.2825    0.1615   -0.0059 C   0  0  0  0  0  0  0  0  0  0  0  0
    2.1263    1.1604    0.5140 C   0  0  0  0  0  0  0  0  0  0  0  0
    3.3632    0.8341    1.0769 C   0  0  0  0  0  0  0  0  0  0  0  0
    3.7812   -0.4927    1.1288 C   0  0  0  0  0  0  0  0  0  0  0  0
    2.9655   -1.4965    0.6159 C   0  0  0  0  0  0  0  0  0  0  0  0
    1.7293   -1.1734    0.0529 C   0  0  0  0  0  0  0  0  0  0  0  0
   -1.2459   -0.2457    0.0659 C   0  0  0  0  0  0  0  0  0  0  0  0
   -2.1532   -1.0735   -0.6173 C   0  0  0  0  0  0  0  0  0  0  0  0
   -3.2052   -1.6991    0.0589 C   0  0  0  0  0  0  0  0  0  0  0  0
   -3.3727   -1.5093    1.4276 C   0  0  0  0  0  0  0  0  0  0  0  0
   -2.4881   -0.6943    2.1259 C   0  0  0  0  0  0  0  0  0  0  0  0
   -1.4370   -0.0681    1.4531 C   0  0  0  0  0  0  0  0  0  0  0  0
   -0.2759    1.5821   -3.7979 H   0  0  0  0  0  0  0  0  0  0  0  0
   -0.6770    2.4290    0.1658 H   0  0  0  0  0  0  0  0  0  0  0  0
    1.8403    2.2094    0.4859 H   0  0  0  0  0  0  0  0  0  0  0  0
    4.0031    1.6192    1.4724 H   0  0  0  0  0  0  0  0  0  0  0  0
    4.7444   -0.7441    1.5651 H   0  0  0  0  0  0  0  0  0  0  0  0
    3.2908   -2.5333    0.6499 H   0  0  0  0  0  0  0  0  0  0  0  0
    1.1130   -1.9786   -0.3471 H   0  0  0  0  0  0  0  0  0  0  0  0
   -2.0638   -1.2585   -1.6856 H   0  0  0  0  0  0  0  0  0  0  0  0
   -3.8945   -2.3387   -0.4874 H   0  0  0  0  0  0  0  0  0  0  0  0
   -4.1908   -1.9991    1.9492 H   0  0  0  0  0  0  0  0  0  0  0  0
   -2.6132   -0.5475    3.1957 H   0  0  0  0  0  0  0  0  0  0  0  0
   -0.7552    0.5580    2.0268 H   0  0  0  0  0  0  0  0  0  0  0  0
  1  2  2  0
  2  3  1  0
  3  4  1  0
  4  5  2  0
  4  6  1  0
  6  7  1  0
  7  8  1  0
  8  9  2  0
  9 10  1  0
 10 11  2  0
 11 12  1  0
 12 13  2  0
  7 14  1  0
 14 15  2  0
 15 16  1  0
 16 17  2  0
 17 18  1  0
 18 19  2  0
  7  2  1  0
 13  8  1  0
 19 14  1  0
  3 20  1  0
  6 21  1  0
  9 22  1  0
 10 23  1  0
 11 24  1  0
 12 25  1  0
 13 26  1  0
 15 27  1  0
 16 28  1  0
 17 29  1  0
 18 30  1  0
 19 31  1  0
M  END
$$$$
