
     RDKit          3D

 48 51  0  0  0  0  0  0  0  0999 V2000
   -5.0066   -4.6181    0.6870 O   0  0  0  0  0  0  0  0  0  0  0  0
   -3.9716   -4.7208    1.6769 C   0  0  0  0  0  0  0  0  0  0  0  0
   -2.7159   -3.9383    1.2640 C   0  0  0  0  0  0  0  0  0  0  0  0
   -3.0637   -2.5376    0.9694 N   0  0  0  0  0  0  0  0  0  0  0  0
   -4.1962   -2.3895    0.0417 C   0  0  0  0  0  0  0  0  0  0  0  0
   -5.3825   -3.2431    0.5154 C   0  0  0  0  0  0  0  0  0  0  0  0
   -1.9602   -1.7311    0.6696 C   0  0  0  0  0  0  0  0  0  0  0  0
   -0.7882   -2.0349    1.2168 N   0  0  0  0  0  0  0  0  0  0  0  0
    0.2326   -1.2431    0.9148 C   0  0  0  0  0  0  0  0  0  0  0  0
    1.4834   -1.5866    1.4949 N   0  0  0  0  0  0  0  0  0  0  0  0
    2.3922   -0.5794    1.7175 N   0  0  0  0  0  0  0  0  0  0  0  0
    3.0585   -0.2432    0.6555 C   0  0  0  0  0  0  0  0  0  0  0  0
    4.0359    0.8510    0.6566 C   0  0  0  0  0  0  0  0  0  0  0  0
    4.7503    1.1412   -0.5057 C   0  0  0  0  0  0  0  0  0  0  0  0
    5.6659    2.1914   -0.4937 C   0  0  0  0  0  0  0  0  0  0  0  0
    5.8251    2.9133    0.6806 C   0  0  0  0  0  0  0  0  0  0  0  0
    5.1424    2.6569    1.8199 N   0  0  0  0  0  0  0  0  0  0  0  0
    4.2600    1.6268    1.7847 C   0  0  0  0  0  0  0  0  0  0  0  0
    0.1395   -0.1947    0.1083 N   0  0  0  0  0  0  0  0  0  0  0  0
   -1.0620    0.0705   -0.3717 C   0  0  0  0  0  0  0  0  0  0  0  0
   -2.1311   -0.6773   -0.1229 N   0  0  0  0  0  0  0  0  0  0  0  0
   -1.2751    1.1543   -1.2237 N   0  0  0  0  0  0  0  0  0  0  0  0
   -0.5020    2.2757   -1.5526 C   0  0  0  0  0  0  0  0  0  0  0  0
   -0.9169    3.0876   -2.6220 C   0  0  0  0  0  0  0  0  0  0  0  0
   -0.1646    4.1927   -3.0326 C   0  0  0  0  0  0  0  0  0  0  0  0
    1.0277    4.5011   -2.3851 C   0  0  0  0  0  0  0  0  0  0  0  0
    1.4649    3.7016   -1.3322 C   0  0  0  0  0  0  0  0  0  0  0  0
    0.7078    2.5965   -0.9272 C   0  0  0  0  0  0  0  0  0  0  0  0
   -4.3599   -4.3618    2.6382 H   0  0  0  0  0  0  0  0  0  0  0  0
   -3.7259   -5.7809    1.7924 H   0  0  0  0  0  0  0  0  0  0  0  0
   -2.2840   -4.4020    0.3673 H   0  0  0  0  0  0  0  0  0  0  0  0
   -1.9894   -4.0120    2.0823 H   0  0  0  0  0  0  0  0  0  0  0  0
   -3.8946   -2.7217   -0.9601 H   0  0  0  0  0  0  0  0  0  0  0  0
   -4.5310   -1.3469   -0.0168 H   0  0  0  0  0  0  0  0  0  0  0  0
   -6.1848   -3.2083   -0.2284 H   0  0  0  0  0  0  0  0  0  0  0  0
   -5.7887   -2.8638    1.4613 H   0  0  0  0  0  0  0  0  0  0  0  0
    1.2247   -2.1205    2.3240 H   0  0  0  0  0  0  0  0  0  0  0  0
    2.9072   -0.7687   -0.3054 H   0  0  0  0  0  0  0  0  0  0  0  0
    4.6008    0.5660   -1.4152 H   0  0  0  0  0  0  0  0  0  0  0  0
    6.2388    2.4433   -1.3805 H   0  0  0  0  0  0  0  0  0  0  0  0
    6.5224    3.7445    0.7383 H   0  0  0  0  0  0  0  0  0  0  0  0
    3.7230    1.4497    2.7141 H   0  0  0  0  0  0  0  0  0  0  0  0
   -2.2456    1.1872   -1.4948 H   0  0  0  0  0  0  0  0  0  0  0  0
   -1.8366    2.8600   -3.1555 H   0  0  0  0  0  0  0  0  0  0  0  0
   -0.5097    4.8083   -3.8597 H   0  0  0  0  0  0  0  0  0  0  0  0
    1.6139    5.3618   -2.6979 H   0  0  0  0  0  0  0  0  0  0  0  0
    2.3930    3.9348   -0.8158 H   0  0  0  0  0  0  0  0  0  0  0  0
    1.0767    2.0081   -0.0919 H   0  0  0  0  0  0  0  0  0  0  0  0
  1  2  1  0
  2  3  1  0
  3  4  1  0
  4  5  1  0
  5  6  1  0
  4  7  1  0
  7  8  2  0
  8  9  1  0
  9 10  1  0
 10 11  1  0
 11 12  2  0
 12 13  1  0
 13 14  2  0
 14 15  1  0
 15 16  2  0
 16 17  1  0
 17 18  2  0
  9 19  2  0
 19 20  1  0
 20 21  2  0
 20 22  1  0
 22 23  1  0
 23 24  2  0
 24 25  1  0
 25 26  2  0
 26 27  1  0
 27 28  2  0
  6  1  1  0
 21  7  1  0
 28 23  1  0
 18 13  1  0
  2 29  1  0
  2 30  1  0
  3 31  1  0
  3 32  1  0
  5 33  1  0
  5 34  1  0
  6 35  1  0
  6 36  1  0
 10 37  1  0
 12 38  1  0
 14 39  1  0
 15 40  1  0
 16 41  1  0
 18 42  1  0
 22 43  1  0
 24 44  1  0
 25 45  1  0
 26 46  1  0
 27 47  1  0
 28 48  1  0
M  END
$$$$
