
     RDKit          3D

 73 77  0  0  0  0  0  0  0  0999 V2000
   -1.7401    3.1734    4.8012 O   0  0  0  0  0  0  0  0  0  0  0  0
   -2.1097    2.7725    3.5501 C   0  0  0  0  0  0  0  0  0  0  0  0
   -1.7732    3.6035    2.4840 C   0  0  0  0  0  0  0  0  0  0  0  0
   -2.1301    3.2405    1.1852 C   0  0  0  0  0  0  0  0  0  0  0  0
   -1.7565    4.0353    0.1428 O   0  0  0  0  0  0  0  0  0  0  0  0
   -2.8286    2.0525    0.9628 C   0  0  0  0  0  0  0  0  0  0  0  0
   -3.1400    1.2183    2.0393 C   0  0  0  0  0  0  0  0  0  0  0  0
   -2.7906    1.5771    3.3420 C   0  0  0  0  0  0  0  0  0  0  0  0
   -3.7938    0.0197    1.8723 O   0  0  0  0  0  0  0  0  0  0  0  0
   -3.7410   -0.5705    0.6081 C   0  0  0  0  0  0  0  0  0  0  0  0
   -3.4515    0.1339   -0.5084 C   0  0  0  0  0  0  0  0  0  0  0  0
   -3.2795    1.6063   -0.3651 C   0  0  0  0  0  0  0  0  0  0  0  0
   -3.5469    2.3684   -1.2838 O   0  0  0  0  0  0  0  0  0  0  0  0
   -3.3490   -0.3999   -1.7779 O   0  0  0  0  0  0  0  0  0  0  0  0
   -2.0135   -0.9020   -2.0044 C   0  0  2  0  0  0  0  0  0  0  0  0
   -1.0199   -0.0183   -1.4728 O   0  0  0  0  0  0  0  0  0  0  0  0
    0.3108   -0.4983   -1.6314 C   0  0  2  0  0  0  0  0  0  0  0  0
    1.2263    0.4782   -0.8890 C   0  0  0  0  0  0  0  0  0  0  0  0
    2.5857    0.0843   -1.0388 O   0  0  0  0  0  0  0  0  0  0  0  0
    3.4784    0.9178   -0.2927 C   0  0  2  0  0  0  0  0  0  0  0  0
    4.7743    0.7687   -0.8680 O   0  0  0  0  0  0  0  0  0  0  0  0
    5.7614    1.6507   -0.3097 C   0  0  1  0  0  0  0  0  0  0  0  0
    5.7749    2.9709   -1.0748 C   0  0  0  0  0  0  0  0  0  0  0  0
    5.5869    1.8674    1.2088 C   0  0  1  0  0  0  0  0  0  0  0  0
    4.8971    0.6372    1.7999 C   0  0  2  0  0  0  0  0  0  0  0  0
    3.4947    0.5037    1.1991 C   0  0  1  0  0  0  0  0  0  0  0  0
    2.5888    1.3428    1.9400 O   0  0  0  0  0  0  0  0  0  0  0  0
    4.7945    0.7537    3.2309 O   0  0  0  0  0  0  0  0  0  0  0  0
    6.8597    2.0714    1.8325 O   0  0  0  0  0  0  0  0  0  0  0  0
    0.6597   -0.6216   -3.1199 C   0  0  2  0  0  0  0  0  0  0  0  0
   -0.3700   -1.5315   -3.8002 C   0  0  1  0  0  0  0  0  0  0  0  0
   -1.8113   -1.0944   -3.5186 C   0  0  1  0  0  0  0  0  0  0  0  0
   -2.6984   -2.0997   -4.0385 O   0  0  0  0  0  0  0  0  0  0  0  0
   -0.1518   -1.5497   -5.2233 O   0  0  0  0  0  0  0  0  0  0  0  0
    1.9537   -1.2020   -3.3410 O   0  0  0  0  0  0  0  0  0  0  0  0
   -4.0068   -2.0301    0.6445 C   0  0  0  0  0  0  0  0  0  0  0  0
   -4.6624   -2.7016   -0.4053 C   0  0  0  0  0  0  0  0  0  0  0  0
   -4.8585   -4.0897   -0.3749 C   0  0  0  0  0  0  0  0  0  0  0  0
   -4.4205   -4.8128    0.7249 C   0  0  0  0  0  0  0  0  0  0  0  0
   -3.8091   -4.1586    1.7892 C   0  0  0  0  0  0  0  0  0  0  0  0
   -3.6072   -2.7831    1.7633 C   0  0  0  0  0  0  0  0  0  0  0  0
   -3.3841   -4.8651    2.8795 O   0  0  0  0  0  0  0  0  0  0  0  0
   -4.5613   -6.1656    0.8063 O   0  0  0  0  0  0  0  0  0  0  0  0
   -1.9663    2.4793    5.4438 H   0  0  0  0  0  0  0  0  0  0  0  0
   -1.2208    4.5185    2.6865 H   0  0  0  0  0  0  0  0  0  0  0  0
   -1.3889    4.8690    0.4807 H   0  0  0  0  0  0  0  0  0  0  0  0
   -3.0582    0.9217    4.1683 H   0  0  0  0  0  0  0  0  0  0  0  0
   -1.9378   -1.8766   -1.4981 H   0  0  0  0  0  0  0  0  0  0  0  0
    0.4125   -1.4806   -1.1495 H   0  0  0  0  0  0  0  0  0  0  0  0
    0.9439    0.4863    0.1680 H   0  0  0  0  0  0  0  0  0  0  0  0
    1.0875    1.4932   -1.2710 H   0  0  0  0  0  0  0  0  0  0  0  0
    3.1625    1.9630   -0.4099 H   0  0  0  0  0  0  0  0  0  0  0  0
    6.7300    1.1693   -0.4887 H   0  0  0  0  0  0  0  0  0  0  0  0
    6.5898    3.6156   -0.7262 H   0  0  0  0  0  0  0  0  0  0  0  0
    4.8282    3.5131   -0.9570 H   0  0  0  0  0  0  0  0  0  0  0  0
    5.9055    2.7944   -2.1495 H   0  0  0  0  0  0  0  0  0  0  0  0
    4.9893    2.7651    1.4160 H   0  0  0  0  0  0  0  0  0  0  0  0
    5.4838   -0.2641    1.5849 H   0  0  0  0  0  0  0  0  0  0  0  0
    3.1362   -0.5258    1.3300 H   0  0  0  0  0  0  0  0  0  0  0  0
    2.8599    1.2321    2.8772 H   0  0  0  0  0  0  0  0  0  0  0  0
    5.6752    0.5205    3.5844 H   0  0  0  0  0  0  0  0  0  0  0  0
    6.6787    2.3803    2.7423 H   0  0  0  0  0  0  0  0  0  0  0  0
    0.6566    0.3620   -3.6086 H   0  0  0  0  0  0  0  0  0  0  0  0
   -0.2280   -2.5693   -3.4675 H   0  0  0  0  0  0  0  0  0  0  0  0
   -2.0375   -0.1596   -4.0478 H   0  0  0  0  0  0  0  0  0  0  0  0
   -2.4856   -2.1499   -4.9911 H   0  0  0  0  0  0  0  0  0  0  0  0
    0.8140   -1.6862   -5.3303 H   0  0  0  0  0  0  0  0  0  0  0  0
    2.5582   -0.8251   -2.6679 H   0  0  0  0  0  0  0  0  0  0  0  0
   -5.0204   -2.1542   -1.2768 H   0  0  0  0  0  0  0  0  0  0  0  0
   -5.3398   -4.5732   -1.2228 H   0  0  0  0  0  0  0  0  0  0  0  0
   -3.1101   -2.3129    2.6104 H   0  0  0  0  0  0  0  0  0  0  0  0
   -3.5876   -5.7945    2.6690 H   0  0  0  0  0  0  0  0  0  0  0  0
   -5.0722   -6.4653    0.0332 H   0  0  0  0  0  0  0  0  0  0  0  0
  1  2  1  0
  2  3  2  0
  3  4  1  0
  4  5  1  0
  4  6  2  0
  6  7  1  0
  7  8  2  0
  7  9  1  0
  9 10  1  0
 10 11  2  0
 11 12  1  0
 12 13  2  0
 11 14  1  0
 14 15  1  0
 15 16  1  0
 16 17  1  0
 17 18  1  0
 18 19  1  0
 19 20  1  0
 20 21  1  0
 21 22  1  0
 22 23  1  0
 22 24  1  0
 24 25  1  0
 25 26  1  0
 26 27  1  0
 25 28  1  0
 24 29  1  0
 17 30  1  0
 30 31  1  0
 31 32  1  0
 32 33  1  0
 31 34  1  0
 30 35  1  0
 10 36  1  0
 36 37  2  0
 37 38  1  0
 38 39  2  0
 39 40  1  0
 40 41  2  0
 40 42  1  0
 39 43  1  0
  8  2  1  0
 32 15  1  0
 41 36  1  0
 12  6  1  0
 26 20  1  0
  1 44  1  0
  3 45  1  0
  5 46  1  0
  8 47  1  0
 15 48  1  1
 17 49  1  1
 18 50  1  0
 18 51  1  0
 20 52  1  1
 22 53  1  1
 23 54  1  0
 23 55  1  0
 23 56  1  0
 24 57  1  6
 25 58  1  1
 26 59  1  6
 27 60  1  0
 28 61  1  0
 29 62  1  0
 30 63  1  6
 31 64  1  1
 32 65  1  6
 33 66  1  0
 34 67  1  0
 35 68  1  0
 37 69  1  0
 38 70  1  0
 41 71  1  0
 42 72  1  0
 43 73  1  0
M  END
$$$$
