
     RDKit          3D

 52 53  0  0  0  0  0  0  0  0999 V2000
   -4.9827    2.4286   -0.2344 C   0  0  0  0  0  0  0  0  0  0  0  0
   -4.4753    1.0024   -0.4681 C   0  0  2  0  0  0  0  0  0  0  0  0
   -5.5595   -0.1145   -0.2739 C   0  0  0  0  0  0  0  0  0  0  0  0
   -4.9606   -1.5025   -0.5899 C   0  0  0  0  0  0  0  0  0  0  0  0
   -6.1142   -0.1439    1.1634 C   0  0  0  0  0  0  0  0  0  0  0  0
   -6.7383    0.1108   -1.2442 C   0  0  0  0  0  0  0  0  0  0  0  0
   -3.3099    0.7925    0.3835 N   0  0  0  0  0  0  0  0  0  0  0  0
   -2.1363    0.2170   -0.0562 C   0  0  0  0  0  0  0  0  0  0  0  0
   -1.8952   -0.1107   -1.2058 O   0  0  0  0  0  0  0  0  0  0  0  0
   -1.1336   -0.0098    1.0798 C   0  0  0  0  0  0  0  0  0  0  0  0
   -1.5838   -0.0813    2.2230 O   0  0  0  0  0  0  0  0  0  0  0  0
    0.3265   -0.1118    0.8258 C   0  0  0  0  0  0  0  0  0  0  0  0
    0.9208    0.3039   -0.3683 C   0  0  0  0  0  0  0  0  0  0  0  0
    2.3056    0.1966   -0.5413 C   0  0  0  0  0  0  0  0  0  0  0  0
    3.1225   -0.3194    0.4752 C   0  0  0  0  0  0  0  0  0  0  0  0
    2.5207   -0.7236    1.6744 C   0  0  0  0  0  0  0  0  0  0  0  0
    1.1379   -0.6182    1.8496 C   0  0  0  0  0  0  0  0  0  0  0  0
    4.6271   -0.4447    0.3056 C   0  0  0  0  0  0  0  0  0  0  0  0
    5.2971    0.9267    0.1109 C   0  0  0  0  0  0  0  0  0  0  0  0
    6.8104    0.7911   -0.0494 C   0  0  0  0  0  0  0  0  0  0  0  0
    7.1733   -0.1694   -1.1783 C   0  0  0  0  0  0  0  0  0  0  0  0
    6.5110   -1.5317   -0.9941 C   0  0  0  0  0  0  0  0  0  0  0  0
    4.9964   -1.4058   -0.8379 C   0  0  0  0  0  0  0  0  0  0  0  0
   -4.1779    3.1510   -0.4155 H   0  0  0  0  0  0  0  0  0  0  0  0
   -5.8037    2.6857   -0.9089 H   0  0  0  0  0  0  0  0  0  0  0  0
   -5.3171    2.5788    0.7970 H   0  0  0  0  0  0  0  0  0  0  0  0
   -4.1315    0.9542   -1.5099 H   0  0  0  0  0  0  0  0  0  0  0  0
   -4.1817   -1.7819    0.1272 H   0  0  0  0  0  0  0  0  0  0  0  0
   -4.5234   -1.5244   -1.5943 H   0  0  0  0  0  0  0  0  0  0  0  0
   -5.7286   -2.2837   -0.5473 H   0  0  0  0  0  0  0  0  0  0  0  0
   -6.6146    0.7940    1.4246 H   0  0  0  0  0  0  0  0  0  0  0  0
   -6.8524   -0.9460    1.2810 H   0  0  0  0  0  0  0  0  0  0  0  0
   -5.3227   -0.3216    1.8988 H   0  0  0  0  0  0  0  0  0  0  0  0
   -6.3874    0.1929   -2.2789 H   0  0  0  0  0  0  0  0  0  0  0  0
   -7.4504   -0.7217   -1.2013 H   0  0  0  0  0  0  0  0  0  0  0  0
   -7.2982    1.0198   -1.0020 H   0  0  0  0  0  0  0  0  0  0  0  0
   -3.4023    0.8795    1.3932 H   0  0  0  0  0  0  0  0  0  0  0  0
    0.3355    0.7212   -1.1834 H   0  0  0  0  0  0  0  0  0  0  0  0
    2.7394    0.5235   -1.4845 H   0  0  0  0  0  0  0  0  0  0  0  0
    3.1232   -1.1250    2.4870 H   0  0  0  0  0  0  0  0  0  0  0  0
    0.6982   -0.9372    2.7931 H   0  0  0  0  0  0  0  0  0  0  0  0
    5.0376   -0.8743    1.2310 H   0  0  0  0  0  0  0  0  0  0  0  0
    5.0800    1.5765    0.9678 H   0  0  0  0  0  0  0  0  0  0  0  0
    4.8922    1.4326   -0.7747 H   0  0  0  0  0  0  0  0  0  0  0  0
    7.2461    0.4312    0.8908 H   0  0  0  0  0  0  0  0  0  0  0  0
    7.2490    1.7755   -0.2480 H   0  0  0  0  0  0  0  0  0  0  0  0
    6.8608    0.2611   -2.1377 H   0  0  0  0  0  0  0  0  0  0  0  0
    8.2613   -0.2917   -1.2223 H   0  0  0  0  0  0  0  0  0  0  0  0
    6.7403   -2.1719   -1.8534 H   0  0  0  0  0  0  0  0  0  0  0  0
    6.9295   -2.0247   -0.1081 H   0  0  0  0  0  0  0  0  0  0  0  0
    4.5676   -2.3977   -0.6489 H   0  0  0  0  0  0  0  0  0  0  0  0
    4.5714   -1.0580   -1.7879 H   0  0  0  0  0  0  0  0  0  0  0  0
  1  2  1  0
  2  3  1  0
  3  4  1  0
  3  5  1  0
  3  6  1  0
  2  7  1  0
  7  8  1  0
  8  9  2  0
  8 10  1  0
 10 11  2  0
 10 12  1  0
 12 13  2  0
 13 14  1  0
 14 15  2  0
 15 16  1  0
 16 17  2  0
 15 18  1  0
 18 19  1  0
 19 20  1  0
 20 21  1  0
 21 22  1  0
 22 23  1  0
 17 12  1  0
 23 18  1  0
  1 24  1  0
  1 25  1  0
  1 26  1  0
  2 27  1  6
  4 28  1  0
  4 29  1  0
  4 30  1  0
  5 31  1  0
  5 32  1  0
  5 33  1  0
  6 34  1  0
  6 35  1  0
  6 36  1  0
  7 37  1  0
 13 38  1  0
 14 39  1  0
 16 40  1  0
 17 41  1  0
 18 42  1  0
 19 43  1  0
 19 44  1  0
 20 45  1  0
 20 46  1  0
 21 47  1  0
 21 48  1  0
 22 49  1  0
 22 50  1  0
 23 51  1  0
 23 52  1  0
M  END
$$$$
