
     RDKit          3D

 59 65  0  0  0  0  0  0  0  0999 V2000
   -4.6108    0.2354    3.0386 C   0  0  0  0  0  0  0  0  0  0  0  0
   -4.3495   -0.2731    1.6291 C   0  0  2  0  0  0  0  0  0  0  0  0
   -2.8950   -0.4976    1.3730 N   0  0  0  0  0  0  0  0  0  0  0  0
   -2.4280    0.7276    0.7320 C   0  0  2  0  0  0  0  0  0  0  0  0
   -3.5933    1.2238    0.0706 N   0  0  0  0  0  0  0  0  0  0  0  0
   -4.7754    0.7653    0.5850 C   0  0  0  0  0  0  0  0  0  0  0  0
   -5.9157    1.0779    0.2895 O   0  0  0  0  0  0  0  0  0  0  0  0
   -3.2659    1.9099   -1.0816 C   0  0  0  0  0  0  0  0  0  0  0  0
   -1.9001    1.7148   -1.3533 C   0  0  0  0  0  0  0  0  0  0  0  0
   -1.3065    0.7241   -0.3626 C   0  0  1  0  0  0  0  0  0  0  0  0
    0.0619    1.0292    0.2049 C   0  0  0  0  0  0  0  0  0  0  0  0
    1.0172    0.2920   -0.7230 C   0  0  2  0  0  0  0  0  0  0  0  0
    0.1482   -0.8539   -1.3197 C   0  0  1  0  0  0  0  0  0  0  0  0
   -1.2101   -0.5591   -0.9997 O   0  0  0  0  0  0  0  0  0  0  0  0
    0.2362   -0.7774   -2.7387 O   0  0  0  0  0  0  0  0  0  0  0  0
    0.5210   -2.2888   -0.8522 C   0  0  0  0  0  0  0  0  0  0  0  0
    1.6529   -2.9093   -1.6988 C   0  0  0  0  0  0  0  0  0  0  0  0
   -0.6754   -3.2552   -0.8937 C   0  0  0  0  0  0  0  0  0  0  0  0
    1.0120   -2.1337    0.5725 C   0  0  0  0  0  0  0  0  0  0  0  0
    0.4411   -2.5254    1.5795 O   0  0  0  0  0  0  0  0  0  0  0  0
    2.2594   -1.2912    0.7078 C   0  0  0  0  0  0  0  0  0  0  0  0
    2.2320   -0.1134   -0.0101 N   0  0  0  0  0  0  0  0  0  0  0  0
    3.2722    0.7987    0.0979 C   0  0  0  0  0  0  0  0  0  0  0  0
    3.2384    1.9280   -0.3818 O   0  0  0  0  0  0  0  0  0  0  0  0
    4.4503    0.3538    0.8660 C   0  0  0  0  0  0  0  0  0  0  0  0
    5.5916    1.1574    0.9660 C   0  0  0  0  0  0  0  0  0  0  0  0
    6.6862    0.7067    1.7026 C   0  0  0  0  0  0  0  0  0  0  0  0
    6.6345   -0.5362    2.3340 C   0  0  0  0  0  0  0  0  0  0  0  0
    5.4880   -1.3291    2.2302 C   0  0  0  0  0  0  0  0  0  0  0  0
    4.3852   -0.8906    1.4947 C   0  0  0  0  0  0  0  0  0  0  0  0
    3.2509   -1.7098    1.4217 N   0  0  0  0  0  0  0  0  0  0  0  0
   -1.3282    2.3124   -2.4657 C   0  0  0  0  0  0  0  0  0  0  0  0
   -2.1431    3.0945   -3.2926 C   0  0  0  0  0  0  0  0  0  0  0  0
   -3.5128    3.2549   -3.0183 C   0  0  0  0  0  0  0  0  0  0  0  0
   -4.0919    2.6474   -1.9039 C   0  0  0  0  0  0  0  0  0  0  0  0
   -4.2693   -0.4876    3.7867 H   0  0  0  0  0  0  0  0  0  0  0  0
   -4.1056    1.1891    3.2283 H   0  0  0  0  0  0  0  0  0  0  0  0
   -5.6826    0.4014    3.1927 H   0  0  0  0  0  0  0  0  0  0  0  0
   -4.8862   -1.2087    1.4431 H   0  0  0  0  0  0  0  0  0  0  0  0
   -2.3886   -0.6835    2.2348 H   0  0  0  0  0  0  0  0  0  0  0  0
   -2.1851    1.4727    1.5048 H   0  0  0  0  0  0  0  0  0  0  0  0
    0.1431    0.6265    1.2229 H   0  0  0  0  0  0  0  0  0  0  0  0
    0.2820    2.1003    0.2678 H   0  0  0  0  0  0  0  0  0  0  0  0
    1.3196    0.9692   -1.5315 H   0  0  0  0  0  0  0  0  0  0  0  0
   -0.5583   -1.2423   -3.0600 H   0  0  0  0  0  0  0  0  0  0  0  0
    1.2976   -3.1818   -2.6991 H   0  0  0  0  0  0  0  0  0  0  0  0
    2.0417   -3.8194   -1.2267 H   0  0  0  0  0  0  0  0  0  0  0  0
    2.4991   -2.2265   -1.8294 H   0  0  0  0  0  0  0  0  0  0  0  0
   -1.0885   -3.3314   -1.9054 H   0  0  0  0  0  0  0  0  0  0  0  0
   -0.3777   -4.2616   -0.5760 H   0  0  0  0  0  0  0  0  0  0  0  0
   -1.4819   -2.9409   -0.2219 H   0  0  0  0  0  0  0  0  0  0  0  0
    5.6287    2.1267    0.4741 H   0  0  0  0  0  0  0  0  0  0  0  0
    7.5781    1.3234    1.7859 H   0  0  0  0  0  0  0  0  0  0  0  0
    7.4860   -0.8898    2.9109 H   0  0  0  0  0  0  0  0  0  0  0  0
    5.4505   -2.2952    2.7282 H   0  0  0  0  0  0  0  0  0  0  0  0
   -0.2854    2.1655   -2.7256 H   0  0  0  0  0  0  0  0  0  0  0  0
   -1.7165    3.5687   -4.1744 H   0  0  0  0  0  0  0  0  0  0  0  0
   -4.1290    3.8533   -3.6856 H   0  0  0  0  0  0  0  0  0  0  0  0
   -5.1492    2.7620   -1.6886 H   0  0  0  0  0  0  0  0  0  0  0  0
  1  2  1  0
  2  3  1  0
  3  4  1  0
  4  5  1  0
  5  6  1  0
  6  7  2  0
  5  8  1  0
  8  9  2  0
  9 10  1  0
 10 11  1  0
 11 12  1  0
 12 13  1  0
 13 14  1  0
 13 15  1  6
 13 16  1  0
 16 17  1  0
 16 18  1  0
 16 19  1  0
 19 20  2  0
 19 21  1  0
 21 22  1  0
 22 23  1  0
 23 24  2  0
 23 25  1  0
 25 26  2  0
 26 27  1  0
 27 28  2  0
 28 29  1  0
 29 30  2  0
 30 31  1  0
  9 32  1  0
 32 33  2  0
 33 34  1  0
 34 35  2  0
  6  2  1  0
 35  8  1  0
 10  4  1  0
 22 12  1  0
 30 25  1  0
 10 14  1  6
 31 21  2  0
  1 36  1  0
  1 37  1  0
  1 38  1  0
  2 39  1  6
  3 40  1  0
  4 41  1  1
 11 42  1  0
 11 43  1  0
 12 44  1  6
 15 45  1  0
 17 46  1  0
 17 47  1  0
 17 48  1  0
 18 49  1  0
 18 50  1  0
 18 51  1  0
 26 52  1  0
 27 53  1  0
 28 54  1  0
 29 55  1  0
 32 56  1  0
 33 57  1  0
 34 58  1  0
 35 59  1  0
M  END
$$$$
