
     RDKit          3D

 24 25  0  0  0  0  0  0  0  0999 V2000
    3.2962    0.3914    0.2203 C   0  0  0  0  0  0  0  0  0  0  0  0
    2.1130   -0.4185    0.0779 N   0  0  0  0  0  0  0  0  0  0  0  0
    2.0727   -1.7857    0.0025 C   0  0  0  0  0  0  0  0  0  0  0  0
    0.8377   -2.2294   -0.1250 N   0  0  0  0  0  0  0  0  0  0  0  0
    0.0718   -1.1029   -0.1302 C   0  0  0  0  0  0  0  0  0  0  0  0
    0.8246    0.0252   -0.0073 C   0  0  0  0  0  0  0  0  0  0  0  0
    0.2697    1.3334    0.0149 C   0  0  0  0  0  0  0  0  0  0  0  0
    0.9573    2.3440    0.1261 O   0  0  0  0  0  0  0  0  0  0  0  0
   -1.1233    1.3322   -0.1026 N   0  0  0  0  0  0  0  0  0  0  0  0
   -1.8109    2.6085   -0.0932 C   0  0  0  0  0  0  0  0  0  0  0  0
   -1.9371    0.1869   -0.2315 C   0  0  0  0  0  0  0  0  0  0  0  0
   -3.1638    0.2885   -0.3295 O   0  0  0  0  0  0  0  0  0  0  0  0
   -1.2964   -1.0525   -0.2428 N   0  0  0  0  0  0  0  0  0  0  0  0
   -2.0611   -2.2794   -0.3719 C   0  0  0  0  0  0  0  0  0  0  0  0
    3.2166    0.9639    1.1478 H   0  0  0  0  0  0  0  0  0  0  0  0
    4.1772   -0.2542    0.2606 H   0  0  0  0  0  0  0  0  0  0  0  0
    3.3675    1.0582   -0.6425 H   0  0  0  0  0  0  0  0  0  0  0  0
    2.9608   -2.4039    0.0447 H   0  0  0  0  0  0  0  0  0  0  0  0
   -1.1267    3.4544    0.0090 H   0  0  0  0  0  0  0  0  0  0  0  0
   -2.3721    2.7170   -1.0272 H   0  0  0  0  0  0  0  0  0  0  0  0
   -2.5210    2.6238    0.7401 H   0  0  0  0  0  0  0  0  0  0  0  0
   -1.8845   -2.9049    0.5088 H   0  0  0  0  0  0  0  0  0  0  0  0
   -1.7344   -2.8111   -1.2712 H   0  0  0  0  0  0  0  0  0  0  0  0
   -3.1338   -2.0850   -0.4521 H   0  0  0  0  0  0  0  0  0  0  0  0
  1  2  1  0
  2  3  1  0
  3  4  2  0
  4  5  1  0
  5  6  2  0
  6  7  1  0
  7  8  2  0
  7  9  1  0
  9 10  1  0
  9 11  1  0
 11 12  2  0
 11 13  1  0
 13 14  1  0
  6  2  1  0
 13  5  1  0
  1 15  1  0
  1 16  1  0
  1 17  1  0
  3 18  1  0
 10 19  1  0
 10 20  1  0
 10 21  1  0
 14 22  1  0
 14 23  1  0
 14 24  1  0
M  END
$$$$
