
     RDKit          3D

 33 35  0  0  0  0  0  0  0  0999 V2000
   -7.2763   -0.4957    0.0698 O   0  0  0  0  0  0  0  0  0  0  0  0
   -6.0800   -0.6846   -0.0924 C   0  0  0  0  0  0  0  0  0  0  0  0
   -4.9740    0.2169    0.4185 C   0  0  0  0  0  0  0  0  0  0  0  0
   -3.8164   -0.4943   -0.0629 N   0  0  0  0  0  0  0  0  0  0  0  0
   -4.1768   -1.6564   -0.7626 C   0  0  0  0  0  0  0  0  0  0  0  0
   -3.4514   -2.4801   -1.2964 O   0  0  0  0  0  0  0  0  0  0  0  0
   -5.5359   -1.7333   -0.7574 N   0  0  0  0  0  0  0  0  0  0  0  0
   -2.5021   -0.1545    0.0950 N   0  0  0  0  0  0  0  0  0  0  0  0
   -2.1957    0.9216    0.7441 C   0  0  0  0  0  0  0  0  0  0  0  0
   -0.8264    1.3179    0.9346 C   0  0  0  0  0  0  0  0  0  0  0  0
   -0.2728    2.4045    1.5804 C   0  0  0  0  0  0  0  0  0  0  0  0
    1.1338    2.2787    1.4489 C   0  0  0  0  0  0  0  0  0  0  0  0
    1.3661    1.1223    0.7299 C   0  0  0  0  0  0  0  0  0  0  0  0
    0.1701    0.5414    0.4193 O   0  0  0  0  0  0  0  0  0  0  0  0
    2.5611    0.4263    0.2564 C   0  0  0  0  0  0  0  0  0  0  0  0
    2.4617   -0.7705   -0.4748 C   0  0  0  0  0  0  0  0  0  0  0  0
    3.6037   -1.4397   -0.9298 C   0  0  0  0  0  0  0  0  0  0  0  0
    4.8672   -0.9092   -0.6528 C   0  0  0  0  0  0  0  0  0  0  0  0
    4.9913    0.2810    0.0733 C   0  0  0  0  0  0  0  0  0  0  0  0
    3.8407    0.9405    0.5227 C   0  0  0  0  0  0  0  0  0  0  0  0
    6.0713   -1.6034   -1.1255 N   0  0  0  0  0  4  0  0  0  0  0  0
    7.1704   -1.0969   -0.8569 O   0  0  0  0  0  0  0  0  0  0  0  0
    5.9197   -2.6540   -1.7648 O   0  0  0  0  0  1  0  0  0  0  0  0
   -4.9750    0.2484    1.5100 H   0  0  0  0  0  0  0  0  0  0  0  0
   -5.0350    1.2035   -0.0454 H   0  0  0  0  0  0  0  0  0  0  0  0
   -6.0514   -2.4774   -1.1944 H   0  0  0  0  0  0  0  0  0  0  0  0
   -2.9555    1.5892    1.1833 H   0  0  0  0  0  0  0  0  0  0  0  0
   -0.8126    3.1933    2.0857 H   0  0  0  0  0  0  0  0  0  0  0  0
    1.8840    2.9543    1.8348 H   0  0  0  0  0  0  0  0  0  0  0  0
    1.4837   -1.1974   -0.6992 H   0  0  0  0  0  0  0  0  0  0  0  0
    3.4845   -2.3635   -1.4925 H   0  0  0  0  0  0  0  0  0  0  0  0
    5.9671    0.7073    0.2974 H   0  0  0  0  0  0  0  0  0  0  0  0
    3.9610    1.8638    1.0850 H   0  0  0  0  0  0  0  0  0  0  0  0
  1  2  2  0
  2  3  1  0
  3  4  1  0
  4  5  1  0
  5  6  2  0
  5  7  1  0
  4  8  1  0
  8  9  2  0
  9 10  1  0
 10 11  2  0
 11 12  1  0
 12 13  2  0
 13 14  1  0
 13 15  1  0
 15 16  2  0
 16 17  1  0
 17 18  2  0
 18 19  1  0
 19 20  2  0
 18 21  1  0
 21 22  2  0
 21 23  1  0
  7  2  1  0
 14 10  1  0
 20 15  1  0
  3 24  1  0
  3 25  1  0
  7 26  1  0
  9 27  1  0
 11 28  1  0
 12 29  1  0
 16 30  1  0
 17 31  1  0
 19 32  1  0
 20 33  1  0
M  CHG  2  21   1  23  -1
M  END
$$$$
